# Generated by REPEAT Assigner based on pymatgen
data_DB12-LOFZUB_clean
_audit_creation_date              2022-05-24
_audit_creation_method            REPEAT_Assigner
_cell_length_a                    18.773200
_cell_length_b                    18.773200
_cell_length_c                    9.453700
_cell_angle_alpha                 90.000000
_cell_angle_beta                  90.000000
_cell_angle_gamma                 90.000000
_cell_volume                      3331.796214
_symmetry_space_group_name_H-M    P1
_symmetry_Int_Tables_number       1
loop_
    _symmetry_equiv_pos_site_id
    _symmetry_equiv_pos_as_xyz
    1  x,y,z
loop_
    _atom_site_type_symbol
    _atom_site_label
    _atom_site_fract_x
    _atom_site_fract_y
    _atom_site_fract_z
    _atom_type_partial_charge
    P   P1    0.064130  0.557680  0.336300  1.295218
    O   O1    0.057400  0.624300  0.246300  -0.593993
    O   O2    0.075400  0.580700  0.487800  -0.553860
    O   O3    0.127300  0.512800  0.290300  -0.656586
    O   O4    0.995000  0.516200  0.323900  -0.655245
    Al  Al1   0.064120  0.665680  0.080900  1.123055
    P   P2    0.050210  0.333150  0.162200  1.275675
    O   O5    0.015100  0.343300  0.018900  -0.637146
    O   O6    0.002600  0.364100  0.277500  -0.664310
    O   O7    0.122100  0.370800  0.159800  -0.600484
    O   O8    0.062400  0.255800  0.193200  -0.526292
    Al  Al2   0.164010  0.455770  0.157800  1.169343
    P   P3    0.834200  0.433760  0.094200  1.263606
    O   O9    0.844900  0.502100  0.012700  -0.649963
    O   O10   0.863000  0.370300  0.014600  -0.650225
    O   O11   0.870300  0.440100  0.236300  -0.596566
    O   O12   0.755600  0.420500  0.120700  -0.522981
    Al  Al3   0.949300  0.434810  0.335800  1.180755
    P   P4    0.435870  0.942320  0.336300  1.295228
    O   O13   0.442600  0.875700  0.246300  -0.593994
    O   O14   0.424600  0.919300  0.487800  -0.553863
    O   O15   0.372700  0.987200  0.290300  -0.656589
    O   O16   0.505000  0.983800  0.323900  -0.655251
    Al  Al4   0.435880  0.834320  0.080900  1.123062
    P   P5    0.449790  0.166850  0.162200  1.275676
    O   O17   0.484900  0.156700  0.018900  -0.637151
    O   O18   0.497400  0.135900  0.277500  -0.664311
    O   O19   0.377900  0.129200  0.159800  -0.600483
    O   O20   0.437600  0.244200  0.193200  -0.526295
    Al  Al5   0.335990  0.044230  0.157800  1.169337
    P   P6    0.665800  0.066240  0.094200  1.263594
    O   O21   0.655100  0.997900  0.012700  -0.649956
    O   O22   0.637000  0.129700  0.014600  -0.650220
    O   O23   0.629700  0.059900  0.236300  -0.596561
    O   O24   0.744400  0.079500  0.120700  -0.522980
    Al  Al6   0.550700  0.065190  0.335800  1.180755
    P   P7    0.942320  0.064130  0.336300  1.295219
    O   O25   0.875700  0.057400  0.246300  -0.593993
    O   O26   0.919300  0.075400  0.487800  -0.553860
    O   O27   0.987200  0.127300  0.290300  -0.656585
    O   O28   0.983800  0.995000  0.323900  -0.655243
    Al  Al7   0.834320  0.064120  0.080900  1.123056
    P   P8    0.166850  0.050210  0.162200  1.275671
    O   O29   0.156700  0.015100  0.018900  -0.637145
    O   O30   0.135900  0.002600  0.277500  -0.664307
    O   O31   0.129200  0.122100  0.159800  -0.600481
    O   O32   0.244200  0.062400  0.193200  -0.526292
    Al  Al8   0.044230  0.164010  0.157800  1.169334
    P   P9    0.066240  0.834200  0.094200  1.263595
    O   O33   0.997900  0.844900  0.012700  -0.649955
    O   O34   0.129700  0.863000  0.014600  -0.650221
    O   O35   0.059900  0.870300  0.236300  -0.596564
    O   O36   0.079500  0.755600  0.120700  -0.522977
    Al  Al9   0.065190  0.949300  0.335800  1.180749
    P   P10   0.557680  0.435870  0.336300  1.295227
    O   O37   0.624300  0.442600  0.246300  -0.593995
    O   O38   0.580700  0.424600  0.487800  -0.553864
    O   O39   0.512800  0.372700  0.290300  -0.656590
    O   O40   0.516200  0.505000  0.323900  -0.655254
    Al  Al10  0.665680  0.435880  0.080900  1.123062
    P   P11   0.333150  0.449790  0.162200  1.275680
    O   O41   0.343300  0.484900  0.018900  -0.637152
    O   O42   0.364100  0.497400  0.277500  -0.664313
    O   O43   0.370800  0.377900  0.159800  -0.600486
    O   O44   0.255800  0.437600  0.193200  -0.526295
    Al  Al11  0.455770  0.335990  0.157800  1.169347
    P   P12   0.433760  0.665800  0.094200  1.263606
    O   O45   0.502100  0.655100  0.012700  -0.649963
    O   O46   0.370300  0.637000  0.014600  -0.650224
    O   O47   0.440100  0.629700  0.236300  -0.596564
    O   O48   0.420500  0.744400  0.120700  -0.522984
    Al  Al12  0.434810  0.550700  0.335800  1.180763
    P   P13   0.935870  0.442320  0.663700  1.295222
    O   O49   0.942600  0.375700  0.753700  -0.593994
    O   O50   0.924600  0.419300  0.512200  -0.553862
    O   O51   0.872700  0.487200  0.709700  -0.656587
    O   O52   0.005000  0.483800  0.676100  -0.655246
    Al  Al13  0.935880  0.334320  0.919100  1.123056
    P   P14   0.949790  0.666850  0.837800  1.275675
    O   O53   0.984900  0.656700  0.981100  -0.637148
    O   O54   0.997400  0.635900  0.722500  -0.664308
    O   O55   0.877900  0.629200  0.840200  -0.600482
    O   O56   0.937600  0.744200  0.806800  -0.526295
    Al  Al14  0.835990  0.544230  0.842200  1.169343
    P   P15   0.165800  0.566240  0.905800  1.263604
    O   O57   0.155100  0.497900  0.987300  -0.649963
    O   O58   0.137000  0.629700  0.985400  -0.650224
    O   O59   0.129700  0.559900  0.763700  -0.596564
    O   O60   0.244400  0.579500  0.879300  -0.522982
    Al  Al15  0.050700  0.565190  0.664200  1.180751
    P   P16   0.564130  0.057680  0.663700  1.295224
    O   O61   0.557400  0.124300  0.753700  -0.593993
    O   O62   0.575400  0.080700  0.512200  -0.553861
    O   O63   0.627300  0.012800  0.709700  -0.656587
    O   O64   0.495000  0.016200  0.676100  -0.655251
    Al  Al16  0.564120  0.165680  0.919100  1.123059
    P   P17   0.550210  0.833150  0.837800  1.275676
    O   O65   0.515100  0.843300  0.981100  -0.637150
    O   O66   0.502600  0.864100  0.722500  -0.664312
    O   O67   0.622100  0.870800  0.840200  -0.600485
    O   O68   0.562400  0.755800  0.806800  -0.526292
    Al  Al17  0.664010  0.955770  0.842200  1.169339
    P   P18   0.334200  0.933760  0.905800  1.263592
    O   O69   0.344900  0.002100  0.987300  -0.649953
    O   O70   0.363000  0.870300  0.985400  -0.650222
    O   O71   0.370300  0.940100  0.763700  -0.596563
    O   O72   0.255600  0.920500  0.879300  -0.522977
    Al  Al18  0.449300  0.934810  0.664200  1.180759
    P   P19   0.057680  0.935870  0.663700  1.295215
    O   O73   0.124300  0.942600  0.753700  -0.593990
    O   O74   0.080700  0.924600  0.512200  -0.553859
    O   O75   0.012800  0.872700  0.709700  -0.656584
    O   O76   0.016200  0.005000  0.676100  -0.655242
    Al  Al19  0.165680  0.935880  0.919100  1.123052
    P   P20   0.833150  0.949790  0.837800  1.275677
    O   O77   0.843300  0.984900  0.981100  -0.637147
    O   O78   0.864100  0.997400  0.722500  -0.664310
    O   O79   0.870800  0.877900  0.840200  -0.600485
    O   O80   0.755800  0.937600  0.806800  -0.526292
    Al  Al20  0.955770  0.835990  0.842200  1.169340
    P   P21   0.933760  0.165800  0.905800  1.263590
    O   O81   0.002100  0.155100  0.987300  -0.649953
    O   O82   0.870300  0.137000  0.985400  -0.650220
    O   O83   0.940100  0.129700  0.763700  -0.596561
    O   O84   0.920500  0.244400  0.879300  -0.522977
    Al  Al21  0.934810  0.050700  0.664200  1.180748
    P   P22   0.442320  0.564130  0.663700  1.295231
    O   O85   0.375700  0.557400  0.753700  -0.593996
    O   O86   0.419300  0.575400  0.512200  -0.553865
    O   O87   0.487200  0.627300  0.709700  -0.656590
    O   O88   0.483800  0.495000  0.676100  -0.655256
    Al  Al22  0.334320  0.564120  0.919100  1.123063
    P   P23   0.666850  0.550210  0.837800  1.275675
    O   O89   0.656700  0.515100  0.981100  -0.637150
    O   O90   0.635900  0.502600  0.722500  -0.664310
    O   O91   0.629200  0.622100  0.840200  -0.600482
    O   O92   0.744200  0.562400  0.806800  -0.526295
    Al  Al23  0.544230  0.664010  0.842200  1.169342
    P   P24   0.566240  0.334200  0.905800  1.263606
    O   O93   0.497900  0.344900  0.987300  -0.649963
    O   O94   0.629700  0.363000  0.985400  -0.650225
    O   O95   0.559900  0.370300  0.763700  -0.596566
    O   O96   0.579500  0.255600  0.879300  -0.522981
    Al  Al24  0.565190  0.449300  0.664200  1.180763
