# Generated by REPEAT Assigner based on pymatgen
data_DB12-cg501560z_si_002_clean
_audit_creation_date              2022-05-24
_audit_creation_method            REPEAT_Assigner
_cell_length_a                    22.837800
_cell_length_b                    24.883400
_cell_length_c                    24.380200
_cell_angle_alpha                 105.497000
_cell_angle_beta                  90.000000
_cell_angle_gamma                 90.000000
_cell_volume                      13351.131461
_symmetry_space_group_name_H-M    P1
_symmetry_Int_Tables_number       1
loop_
    _symmetry_equiv_pos_site_id
    _symmetry_equiv_pos_as_xyz
    1  x,y,z
loop_
    _atom_site_type_symbol
    _atom_site_label
    _atom_site_fract_x
    _atom_site_fract_y
    _atom_site_fract_z
    _atom_type_partial_charge
    Mn  Mn1   0.702780  0.916080  0.059650  1.189462
    Mn  Mn2   0.315440  0.242320  0.502840  0.984571
    Mn  Mn3   0.684560  0.757680  0.497160  0.984569
    Mn  Mn4   0.057890  0.500000  0.750000  1.191991
    Mn  Mn5   0.702980  0.570060  0.945910  1.182312
    Mn  Mn6   0.297020  0.570060  0.445910  1.182914
    Mn  Mn7   0.062840  -0.000000  0.250000  1.202059
    Mn  Mn8   0.297220  0.083920  0.940350  1.189467
    Mn  Mn9   0.297220  0.916080  0.559650  1.189480
    Mn  Mn10  0.315440  0.757680  0.997160  0.984580
    Mn  Mn11  0.702780  0.083920  0.440350  1.189471
    Mn  Mn12  0.297020  0.429940  0.054090  1.182968
    Mn  Mn13  0.684560  0.242320  0.002840  0.984541
    Mn  Mn14  0.937160  0.000000  0.750000  1.202109
    Mn  Mn15  0.702980  0.429940  0.554090  1.182889
    Mn  Mn16  0.942110  0.500000  0.250000  1.191985
    Cr  Cr1   0.788060  0.959140  0.571580  1.022098
    Cr  Cr2   0.448120  0.256270  0.000190  0.988320
    Cr  Cr3   0.205540  0.440260  0.570640  1.017899
    Cr  Cr4   0.178920  0.500000  0.250000  0.892543
    Cr  Cr5   0.211940  0.959140  0.071580  1.022112
    Cr  Cr6   0.448120  0.743730  0.499810  0.988323
    Cr  Cr7   0.205540  0.559740  0.929360  1.017438
    Cr  Cr8   0.794460  0.440260  0.070640  1.018003
    Cr  Cr9   0.172990  0.000000  0.750000  0.871325
    Cr  Cr10  0.794460  0.559740  0.429360  1.017939
    Cr  Cr11  0.827010  -0.000000  0.250000  0.871349
    Cr  Cr12  0.788060  0.040860  0.928420  1.022104
    Cr  Cr13  0.821080  0.500000  0.750000  0.892657
    Cr  Cr14  0.551880  0.743730  0.999810  0.988505
    Cr  Cr15  0.551880  0.256270  0.500190  0.988306
    Cr  Cr16  0.211940  0.040860  0.428420  1.022087
    C   C1    0.751400  0.141400  0.994600  0.462768
    C   C2    0.603000  0.842500  0.053000  0.452379
    C   C3    0.268500  0.138900  0.432600  0.468170
    C   C4    0.737700  0.655600  0.428700  0.465604
    C   C5    0.561200  0.234800  0.025400  0.458858
    C   C6    0.279900  0.501800  0.980600  0.518604
    C   C7    0.602200  0.642800  0.949800  0.433991
    C   C8    0.850800  0.498800  0.166400  0.513566
    C   C9    0.638000  0.181900  0.501500  0.518396
    C   C10   0.936400  0.479000  0.768300  0.499806
    C   C11   0.778600  0.929300  0.156000  0.494742
    C   C12   0.240700  0.338000  0.508700  0.467281
    C   C13   0.250800  0.013000  0.837300  0.465773
    C   C14   0.941800  0.019800  0.230200  0.491418
    C   C15   0.846600  0.009000  0.670200  0.506848
    C   C16   0.941800  0.980200  0.269800  0.491406
    C   C17   0.248600  0.858600  0.005400  0.462749
    C   C18   0.435100  0.734900  0.022300  0.468121
    C   C19   0.255400  0.494600  0.162700  0.469253
    C   C20   0.751400  0.858600  0.505400  0.462782
    C   C21   0.397800  0.642800  0.449800  0.433811
    C   C22   0.603000  0.157500  0.447000  0.452351
    C   C23   0.220200  0.033200  0.007800  0.464273
    C   C24   0.365000  0.333400  0.993900  0.545712
    C   C25   0.783400  0.487000  0.494400  0.463497
    C   C26   0.362000  0.181900  0.001500  0.518370
    C   C27   0.216600  0.487000  0.994400  0.463204
    C   C28   0.250800  0.987000  0.662700  0.465796
    C   C29   0.720100  0.498200  0.019400  0.518104
    C   C30   0.268500  0.861100  0.067400  0.468171
    C   C31   0.111000  0.446500  0.641300  0.471911
    C   C32   0.435100  0.265100  0.477700  0.468205
    C   C33   0.564900  0.734900  0.522300  0.468190
    C   C34   0.216600  0.513000  0.505600  0.463439
    C   C35   0.731500  0.861100  0.567400  0.468174
    C   C36   0.561200  0.765200  0.474600  0.458860
    C   C37   0.759300  0.662000  0.491300  0.467293
    C   C38   0.889000  0.553500  0.358700  0.471928
    C   C39   0.063600  0.479000  0.268300  0.499840
    C   C40   0.221400  0.929300  0.656000  0.494739
    C   C41   0.638000  0.818100  0.998500  0.518338
    C   C42   0.362000  0.818100  0.498500  0.518360
    C   C43   0.397800  0.357200  0.050200  0.433949
    C   C44   0.749200  0.987000  0.162700  0.465786
    C   C45   0.262300  0.655600  0.928700  0.465651
    C   C46   0.058200  0.980200  0.769800  0.491403
    C   C47   0.716700  0.019600  0.522100  0.529447
    C   C48   0.255400  0.505400  0.337300  0.469232
    C   C49   0.759300  0.338000  0.008700  0.467316
    C   C50   0.240700  0.662000  0.991300  0.467182
    C   C51   0.365000  0.666600  0.506100  0.545920
    C   C52   0.438800  0.765200  0.974600  0.458913
    C   C53   0.779800  0.033200  0.507800  0.464277
    C   C54   0.397000  0.842500  0.553000  0.452373
    C   C55   0.783400  0.513000  0.005600  0.463836
    C   C56   0.283300  0.019600  0.022100  0.529455
    C   C57   0.779800  0.966800  0.992200  0.464269
    C   C58   0.635000  0.666600  0.006100  0.545655
    C   C59   0.775100  0.436300  0.650800  0.502321
    C   C60   0.058200  0.019800  0.730200  0.491424
    C   C61   0.117400  0.956700  0.139400  0.506497
    C   C62   0.283300  0.980400  0.477900  0.529448
    C   C63   0.744600  0.505400  0.837300  0.469151
    C   C64   0.602200  0.357200  0.550200  0.433941
    C   C65   0.111000  0.553500  0.858700  0.471960
    C   C66   0.846600  0.991000  0.829800  0.506816
    C   C67   0.248600  0.141400  0.494600  0.462780
    C   C68   0.149200  0.501200  0.833600  0.513501
    C   C69   0.720100  0.501800  0.480600  0.518362
    C   C70   0.564900  0.265100  0.977700  0.468182
    C   C71   0.221400  0.070700  0.844000  0.494759
    C   C72   0.153400  0.991000  0.329800  0.506887
    C   C73   0.438800  0.234800  0.525400  0.458864
    C   C74   0.778600  0.070700  0.344000  0.494741
    C   C75   0.220200  0.966800  0.492200  0.464275
    C   C76   0.889000  0.446500  0.141300  0.471942
    C   C77   0.882600  0.956700  0.639400  0.506473
    C   C78   0.224900  0.563700  0.349200  0.502289
    C   C79   0.775100  0.563700  0.849200  0.502393
    C   C80   0.397000  0.157500  0.947000  0.452343
    C   C81   0.737700  0.344400  0.071300  0.465580
    C   C82   0.635000  0.333400  0.493900  0.545726
    C   C83   0.744600  0.494600  0.662700  0.469195
    C   C84   0.716700  0.980400  0.977900  0.529454
    C   C85   0.731500  0.138900  0.932600  0.468157
    C   C86   0.063600  0.521000  0.231700  0.499837
    C   C87   0.749200  0.013000  0.337300  0.465786
    C   C88   0.262300  0.344400  0.571300  0.465600
    C   C89   0.850800  0.501200  0.333600  0.513563
    C   C90   0.224900  0.436300  0.150800  0.502275
    C   C91   0.149200  0.498800  0.666400  0.513607
    C   C92   0.117400  0.043300  0.360600  0.506453
    C   C93   0.882600  0.043300  0.860600  0.506510
    C   C94   0.279900  0.498200  0.519400  0.518379
    C   C95   0.936400  0.521000  0.731700  0.499861
    C   C96   0.153400  0.009000  0.170200  0.506833
    O   O1    0.297100  0.177200  0.424600  -0.383165
    O   O2    0.388200  0.709600  0.538800  -0.418827
    O   O3    0.803700  0.501400  0.140500  -0.398427
    O   O4    0.865800  0.040100  0.714800  -0.471765
    O   O5    0.134200  0.959900  0.285200  -0.471771
    O   O6    0.180100  0.989500  0.469900  -0.406859
    O   O7    0.322000  0.517100  0.499500  -0.455269
    O   O8    0.252000  0.905300  0.104900  -0.406204
    O   O9    0.674900  0.962900  0.001100  -0.478023
    O   O10   0.678000  0.482900  0.500500  -0.455230
    O   O11   0.315800  0.158600  0.008800  -0.462578
    O   O12   0.239800  0.111200  0.881600  -0.483096
    O   O13   0.282900  0.466000  0.552700  -0.427921
    O   O14   0.711200  0.991100  0.128100  -0.458188
    O   O15   0.819300  0.928400  0.190800  -0.361759
    O   O16   0.618600  0.402000  0.582400  -0.445921
    O   O17   0.210000  0.377200  0.502300  -0.389512
    O   O18   0.180700  0.928400  0.690800  -0.361752
    O   O19   0.983700  0.538200  0.719400  -0.468683
    O   O20   0.108100  0.969400  0.786230  -0.374292
    O   O21   0.134600  0.068200  0.409720  -0.402799
    O   O22   0.211300  0.454200  0.024200  -0.441048
    O   O23   0.761300  0.470400  0.792400  -0.366231
    O   O24   0.128000  0.417100  0.593200  -0.390370
    O   O25   0.114300  0.533500  0.216500  -0.390902
    O   O26   0.114300  0.466500  0.283500  -0.390909
    O   O27   0.200100  0.984200  0.355200  -0.405592
    O   O28   0.386800  0.727700  0.040500  -0.393216
    O   O29   0.865400  0.068200  0.909720  -0.402819
    O   O30   0.760200  0.888800  0.118400  -0.483087
    O   O31   0.184600  0.567200  0.314100  -0.371202
    O   O32   0.824000  0.489800  0.026100  -0.400322
    O   O33   0.869500  0.466400  0.290400  -0.471699
    O   O34   0.679100  0.357900  0.484800  -0.481986
    O   O35   0.790000  0.622800  0.497700  -0.389521
    O   O36   0.176000  0.489800  0.526100  -0.400193
    O   O37   0.819900  0.010500  0.530100  -0.406867
    O   O38   0.288800  0.991100  0.628100  -0.458195
    O   O39   0.745500  0.295500  0.972400  -0.395785
    O   O40   0.872000  0.582900  0.406800  -0.390390
    O   O41   0.010500  0.962280  0.781600  -0.458924
    O   O42   0.252000  0.094700  0.395100  -0.406210
    O   O43   0.815400  0.567200  0.814100  -0.371275
    O   O44   0.707900  0.498400  0.871000  -0.460005
    O   O45   0.758700  0.601200  0.890500  -0.477894
    O   O46   0.241300  0.398800  0.109500  -0.478006
    O   O47   0.515500  0.720200  0.537600  -0.386335
    O   O48   0.872000  0.417100  0.093200  -0.390391
    O   O49   0.509100  0.772800  0.459000  -0.385923
    O   O50   0.441200  0.185100  0.940470  -0.372814
    O   O51   0.678000  0.517100  0.999500  -0.455042
    O   O52   0.606300  0.778500  0.455300  -0.391174
    O   O53   0.515500  0.279800  0.962400  -0.386335
    O   O54   0.748000  0.905300  0.604900  -0.406216
    O   O55   0.282900  0.534000  0.947300  -0.427935
    O   O56   0.613200  0.727700  0.540500  -0.393256
    O   O57   0.381400  0.402000  0.082400  -0.445913
    O   O58   0.441300  0.671300  0.441000  -0.377394
    O   O59   0.490900  0.227200  0.541000  -0.385917
    O   O60   0.679100  0.642100  0.015200  -0.481758
    O   O61   0.611800  0.290400  0.461200  -0.418734
    O   O62   0.931100  0.563100  0.331300  -0.455972
    O   O63   0.779900  0.099900  0.000300  -0.393399
    O   O64   0.238700  0.529600  0.207600  -0.366195
    O   O65   0.779900  0.900100  0.499700  -0.393417
    O   O66   0.815400  0.432800  0.685900  -0.371256
    O   O67   0.983700  0.461800  0.780600  -0.468662
    O   O68   0.180700  0.071600  0.809200  -0.361761
    O   O69   0.134600  0.931800  0.090280  -0.402824
    O   O70   0.232700  0.024900  0.704100  -0.349108
    O   O71   0.717100  0.534000  0.447300  -0.427966
    O   O72   0.293500  0.307300  0.580400  -0.397478
    O   O73   0.134200  0.040100  0.214800  -0.471745
    O   O74   0.737100  0.182700  0.032500  -0.391069
    O   O75   0.484500  0.720200  0.037600  -0.386327
    O   O76   0.130500  0.466400  0.790400  -0.471674
    O   O77   0.712100  0.990200  0.556800  -0.420576
    O   O78   0.388200  0.290400  0.961200  -0.418726
    O   O79   0.074800  0.056200  0.335200  -0.484096
    O   O80   0.755300  0.612000  0.392800  -0.390752
    O   O81   0.288800  0.008900  0.871900  -0.458192
    O   O82   0.788700  0.545800  0.975800  -0.441231
    O   O83   0.787300  0.935000  0.022700  -0.439774
    O   O84   0.292100  0.501600  0.129000  -0.460175
    O   O85   0.684200  0.841400  0.991200  -0.462569
    O   O86   0.748000  0.094700  0.895100  -0.406208
    O   O87   0.325100  0.037100  0.998900  -0.478017
    O   O88   0.737100  0.817300  0.467500  -0.391071
    O   O89   0.287900  0.009800  0.443200  -0.420572
    O   O90   0.799900  0.984200  0.855200  -0.405582
    O   O91   0.702900  0.822800  0.575400  -0.383163
    O   O92   0.176000  0.510200  0.973900  -0.400098
    O   O93   0.891900  0.969400  0.286230  -0.374295
    O   O94   0.196300  0.501400  0.640500  -0.398423
    O   O95   0.293500  0.692700  0.919600  -0.397517
    O   O96   0.262900  0.182700  0.532500  -0.391066
    O   O97   0.619400  0.887400  0.085400  -0.458835
    O   O98   0.925200  0.943800  0.664800  -0.484111
    O   O99   0.381400  0.598000  0.417600  -0.445871
    O   O100  0.824000  0.510200  0.473900  -0.400209
    O   O101  0.325100  0.962900  0.501100  -0.478023
    O   O102  0.787300  0.065000  0.477300  -0.439781
    O   O103  0.606300  0.221500  0.044700  -0.391167
    O   O104  0.799900  0.015800  0.644800  -0.405580
    O   O105  0.788700  0.454200  0.524200  -0.441171
    O   O106  0.885700  0.533500  0.716500  -0.390922
    O   O107  0.706500  0.692700  0.419600  -0.397481
    O   O108  0.745500  0.704500  0.527600  -0.395790
    O   O109  0.619400  0.112600  0.414600  -0.458836
    O   O110  0.130500  0.533600  0.709600  -0.471712
    O   O111  0.790000  0.377200  0.002300  -0.389547
    O   O112  0.711200  0.008900  0.371900  -0.458195
    O   O113  0.068900  0.436900  0.668700  -0.455980
    O   O114  0.618600  0.598000  0.917600  -0.445778
    O   O115  0.211300  0.545800  0.475800  -0.441128
    O   O116  0.819300  0.071600  0.309200  -0.361766
    O   O117  0.212700  0.935000  0.522700  -0.439788
    O   O118  0.611800  0.709600  0.038800  -0.418821
    O   O119  0.196300  0.498600  0.859500  -0.398278
    O   O120  0.210000  0.622800  0.997700  -0.389330
    O   O121  0.803700  0.498600  0.359500  -0.398399
    O   O122  0.315800  0.841400  0.491200  -0.462585
    O   O123  0.383100  0.225300  0.035860  -0.409893
    O   O124  0.241300  0.601200  0.390500  -0.477994
    O   O125  0.865800  0.959900  0.785200  -0.471738
    O   O126  0.386800  0.272300  0.459500  -0.393262
    O   O127  0.068900  0.563100  0.831300  -0.455979
    O   O128  0.558800  0.185100  0.440470  -0.372810
    O   O129  0.613200  0.272300  0.959500  -0.393240
    O   O130  0.931100  0.436900  0.168700  -0.455980
    O   O131  0.616900  0.774700  0.964140  -0.409893
    O   O132  0.767300  0.024900  0.204100  -0.349105
    O   O133  0.380600  0.887400  0.585400  -0.458844
    O   O134  0.220100  0.900100  0.999700  -0.393398
    O   O135  0.865400  0.931800  0.590280  -0.402800
    O   O136  0.885700  0.466500  0.783500  -0.390891
    O   O137  0.761300  0.529600  0.707600  -0.366205
    O   O138  0.484500  0.279800  0.462400  -0.386342
    O   O139  0.292100  0.498400  0.371000  -0.460164
    O   O140  0.755300  0.388000  0.107200  -0.390760
    O   O141  0.262900  0.817300  0.967500  -0.391059
    O   O142  0.184600  0.432800  0.185900  -0.371194
    O   O143  0.010500  0.037720  0.718400  -0.458940
    O   O144  0.717100  0.466000  0.052700  -0.427938
    O   O145  0.925200  0.056200  0.835200  -0.484127
    O   O146  0.320900  0.357900  0.984800  -0.481984
    O   O147  0.706500  0.307300  0.080400  -0.397465
    O   O148  0.558800  0.814900  0.059530  -0.372854
    O   O149  0.220100  0.099900  0.500300  -0.393416
    O   O150  0.297100  0.822800  0.075400  -0.383174
    O   O151  0.441200  0.814900  0.559530  -0.372805
    O   O152  0.712100  0.009800  0.943200  -0.420582
    O   O153  0.684200  0.158600  0.508800  -0.462595
    O   O154  0.767300  0.975100  0.295900  -0.349097
    O   O155  0.891900  0.030600  0.213770  -0.374301
    O   O156  0.108100  0.030600  0.713770  -0.374297
    O   O157  0.616900  0.225300  0.535860  -0.409903
    O   O158  0.760200  0.111200  0.381600  -0.483083
    O   O159  0.287900  0.990200  0.056800  -0.420591
    O   O160  0.254500  0.295500  0.472400  -0.395785
    O   O161  0.254500  0.704500  0.027600  -0.395787
    O   O162  0.200100  0.015800  0.144800  -0.405585
    O   O163  0.320900  0.642100  0.515200  -0.482017
    O   O164  0.393700  0.221500  0.544700  -0.391179
    O   O165  0.989500  0.037720  0.218400  -0.458932
    O   O166  0.441300  0.328700  0.059000  -0.377431
    O   O167  0.707900  0.501600  0.629000  -0.460145
    O   O168  0.558700  0.671300  0.941000  -0.377532
    O   O169  0.212700  0.065000  0.977300  -0.439775
    O   O170  0.380600  0.112600  0.914600  -0.458827
    O   O171  0.819900  0.989500  0.969900  -0.406866
    O   O172  0.244700  0.388000  0.607200  -0.390754
    O   O173  0.128000  0.582900  0.906800  -0.390321
    O   O174  0.674900  0.037100  0.498900  -0.478021
    O   O175  0.074800  0.943800  0.164800  -0.484098
    O   O176  0.180100  0.010500  0.030100  -0.406869
    O   O177  0.558700  0.328700  0.559000  -0.377421
    O   O178  0.238700  0.470400  0.292400  -0.366186
    O   O179  0.509100  0.227200  0.041000  -0.385918
    O   O180  0.989500  0.962280  0.281600  -0.458915
    O   O181  0.758700  0.398800  0.609500  -0.477932
    O   O182  0.702900  0.177200  0.924600  -0.383156
    O   O183  0.490900  0.772800  0.959000  -0.385972
    O   O184  0.869500  0.533600  0.209600  -0.471695
    O   O185  0.393700  0.778500  0.955300  -0.391181
    O   O186  0.322000  0.482900  0.000500  -0.455344
    O   O187  0.232700  0.975100  0.795900  -0.349088
    O   O188  0.383100  0.774700  0.464140  -0.409893
    O   O189  0.239800  0.888800  0.618400  -0.483089
    O   O190  0.016300  0.461800  0.280600  -0.468672
    O   O191  0.244700  0.612000  0.892800  -0.390657
    O   O192  0.016300  0.538200  0.219400  -0.468671
