# Generated by REPEAT Assigner based on pymatgen
data_DB12-c6cc02494g_c6cc02494g3_freeONLY
_audit_creation_date              2022-05-24
_audit_creation_method            REPEAT_Assigner
_cell_length_a                    27.316000
_cell_length_b                    27.316000
_cell_length_c                    15.089100
_cell_angle_alpha                 90.000000
_cell_angle_beta                  90.000000
_cell_angle_gamma                 120.000000
_cell_volume                      9750.528960
_symmetry_space_group_name_H-M    P1
_symmetry_Int_Tables_number       1
loop_
    _symmetry_equiv_pos_site_id
    _symmetry_equiv_pos_as_xyz
    1  x,y,z
loop_
    _atom_site_type_symbol
    _atom_site_label
    _atom_site_fract_x
    _atom_site_fract_y
    _atom_site_fract_z
    _atom_type_partial_charge
    C   C1    0.339530  0.218110  0.197450  -0.124836
    C   C2    0.649720  0.863820  0.780500  -0.074749
    C   C3    0.076200  0.344350  0.765330  0.738016
    C   C4    0.788090  0.672860  0.135880  -0.139263
    C   C5    0.785910  0.649720  0.219500  -0.071025
    C   C6    0.836860  0.691130  0.088190  0.138098
    C   C7    0.742870  0.677680  0.098660  0.737850
    C   C8    0.454750  0.006200  0.469220  -0.139367
    C   C9    0.452570  0.983060  0.552840  -0.071048
    C   C10   0.503520  0.024470  0.421530  0.138059
    C   C11   0.409530  0.011020  0.432000  0.738044
    C   C12   0.781890  0.660470  0.697450  -0.124862
    C   C13   0.691130  0.854280  0.911810  0.128967
    C   C14   0.802850  0.683610  0.613830  -0.074449
    C   C15   0.812390  0.642200  0.745140  0.129201
    C   C16   0.731850  0.655650  0.734670  0.728244
    C   C17   0.448560  0.993800  0.030780  -0.124979
    C   C18   0.469520  0.016940  0.947160  -0.074191
    C   C19   0.479060  0.975530  0.078470  0.129740
    C   C20   0.398520  0.988980  0.068000  0.727926
    C   C21   0.115220  0.327140  0.364120  -0.124428
    C   C22   0.136180  0.350280  0.280500  -0.074759
    C   C23   0.145720  0.308870  0.411810  0.128970
    C   C24   0.677680  0.934820  0.901340  0.727946
    C   C25   0.065180  0.322320  0.401340  0.727927
    C   C26   0.878580  0.218110  0.697450  -0.136851
    C   C27   0.880760  0.197150  0.613830  -0.062281
    C   C28   0.829810  0.187610  0.745140  0.128538
    C   C29   0.923800  0.268150  0.734670  0.731527
    C   C30   0.545250  0.551440  0.030780  -0.136636
    C   C31   0.547430  0.530480  0.947160  -0.062395
    C   C32   0.496480  0.520940  0.078470  0.128692
    C   C33   0.590470  0.601480  0.068000  0.731429
    C   C34   0.211910  0.884780  0.364120  -0.136679
    C   C35   0.781890  0.121420  0.197450  -0.136830
    C   C36   0.214090  0.863820  0.280500  -0.062037
    C   C37   0.163140  0.854280  0.411810  0.128810
    C   C38   0.257130  0.934820  0.401340  0.730895
    C   C39   0.339530  0.121420  0.697450  -0.139640
    C   C40   0.316390  0.119240  0.613830  -0.070802
    C   C41   0.357800  0.170190  0.745140  0.138253
    C   C42   0.344350  0.076200  0.734670  0.737984
    C   C43   0.006200  0.454750  0.030780  -0.139939
    C   C44   0.983060  0.452570  0.947160  -0.070369
    C   C45   0.024470  0.503520  0.078470  0.137996
    C   C46   0.802850  0.119240  0.113830  -0.062282
    C   C47   0.011020  0.409530  0.068000  0.738292
    C   C48   0.672860  0.788090  0.364120  -0.139279
    C   C49   0.649720  0.785910  0.280500  -0.071012
    C   C50   0.691130  0.836860  0.411810  0.138096
    C   C51   0.677680  0.742870  0.401340  0.737827
    C   C52   0.812390  0.170190  0.245140  0.128462
    C   C53   0.731850  0.076200  0.234670  0.731567
    C   C54   0.448560  0.454750  0.530780  -0.136633
    C   C55   0.469520  0.452570  0.447160  -0.062392
    C   C56   0.479060  0.503520  0.578470  0.128686
    C   C57   0.316390  0.197150  0.113830  -0.074417
    C   C58   0.398520  0.409530  0.568000  0.731417
    C   C59   0.115220  0.788090  0.864120  -0.136626
    C   C60   0.136180  0.785910  0.780500  -0.062101
    C   C61   0.145720  0.836860  0.911810  0.128782
    C   C62   0.065180  0.742870  0.901340  0.730851
    C   C63   0.878580  0.660470  0.197450  -0.139685
    C   C64   0.880760  0.683610  0.113830  -0.070793
    C   C65   0.829810  0.642200  0.245140  0.138278
    C   C66   0.923800  0.655650  0.234670  0.738044
    C   C67   0.545250  0.993800  0.530780  -0.139392
    C   C68   0.357800  0.187610  0.245140  0.129142
    C   C69   0.547430  0.016940  0.447160  -0.071035
    C   C70   0.496480  0.975530  0.578470  0.138168
    C   C71   0.590470  0.988980  0.568000  0.738077
    C   C72   0.211910  0.327140  0.864120  -0.139278
    C   C73   0.214090  0.350280  0.780500  -0.071038
    C   C74   0.163140  0.308870  0.911810  0.138088
    C   C75   0.257130  0.322320  0.901340  0.737859
    C   C76   0.218110  0.339530  0.302550  -0.124786
    C   C77   0.197150  0.316390  0.386170  -0.074449
    C   C78   0.187610  0.357800  0.254860  0.129122
    C   C79   0.344350  0.268150  0.234670  0.728235
    C   C80   0.268150  0.344350  0.265330  0.728189
    C   C81   0.884780  0.672860  0.635880  -0.124504
    C   C82   0.863820  0.649720  0.719500  -0.074647
    C   C83   0.854280  0.691130  0.588190  0.128974
    C   C84   0.934820  0.677680  0.598660  0.727960
    C   C85   0.551440  0.006200  0.969220  -0.124150
    C   C86   0.530480  0.983060  0.052840  -0.075118
    C   C87   0.520940  0.024470  0.921530  0.129081
    C   C88   0.601480  0.011020  0.932000  0.727607
    C   C89   0.121420  0.781890  0.302550  -0.136846
    C   C90   0.006200  0.551440  0.530780  -0.124840
    C   C91   0.119240  0.802850  0.386170  -0.062281
    C   C92   0.170190  0.812390  0.254860  0.128479
    C   C93   0.076200  0.731850  0.265330  0.731481
    C   C94   0.788090  0.115220  0.635880  -0.136552
    C   C95   0.785910  0.136180  0.719500  -0.062179
    C   C96   0.836860  0.145720  0.588190  0.128778
    C   C97   0.742870  0.065180  0.598660  0.730768
    C   C98   0.454750  0.448560  0.969220  -0.136597
    C   C99   0.452570  0.469520  0.052840  -0.062438
    C   C100  0.503520  0.479060  0.921530  0.128655
    C   C101  0.983060  0.530480  0.447160  -0.074341
    C   C102  0.409530  0.398520  0.932000  0.731391
    C   C103  0.660470  0.878580  0.302550  -0.139634
    C   C104  0.683610  0.880760  0.386170  -0.070815
    C   C105  0.642200  0.829810  0.254860  0.138239
    C   C106  0.655650  0.923800  0.265330  0.738090
    C   C107  0.327140  0.211910  0.635880  -0.139293
    C   C108  0.350280  0.214090  0.719500  -0.071003
    C   C109  0.308870  0.163140  0.588190  0.138095
    C   C110  0.322320  0.257130  0.598660  0.737868
    C   C111  0.993800  0.545250  0.969220  -0.139906
    C   C112  0.024470  0.520940  0.578470  0.129387
    C   C113  0.016940  0.547430  0.052840  -0.070404
    C   C114  0.975530  0.496480  0.921530  0.137957
    C   C115  0.988980  0.590470  0.932000  0.738332
    C   C116  0.660470  0.781890  0.802550  -0.124782
    C   C117  0.683610  0.802850  0.886170  -0.074440
    C   C118  0.642200  0.812390  0.754860  0.129129
    C   C119  0.655650  0.731850  0.765330  0.728131
    C   C120  0.327140  0.115220  0.135880  -0.124431
    C   C121  0.350280  0.136180  0.219500  -0.074744
    C   C122  0.308870  0.145720  0.088190  0.128955
    C   C123  0.011020  0.601480  0.568000  0.727973
    C   C124  0.322320  0.065180  0.098660  0.727899
    C   C125  0.993800  0.448560  0.469220  -0.124835
    C   C126  0.016940  0.469520  0.552840  -0.074385
    C   C127  0.975530  0.479060  0.421530  0.129370
    C   C128  0.988980  0.398520  0.432000  0.727957
    C   C129  0.218110  0.878580  0.802550  -0.136842
    C   C130  0.197150  0.880760  0.886170  -0.062291
    C   C131  0.187610  0.829810  0.754860  0.128561
    C   C132  0.268150  0.923800  0.765330  0.731580
    C   C133  0.884780  0.211910  0.135880  -0.136623
    C   C134  0.672860  0.884780  0.864120  -0.124447
    C   C135  0.863820  0.214090  0.219500  -0.062051
    C   C136  0.854280  0.163140  0.088190  0.128784
    C   C137  0.934820  0.257130  0.098660  0.730799
    C   C138  0.551440  0.545250  0.469220  -0.136627
    C   C139  0.530480  0.547430  0.552840  -0.062425
    C   C140  0.520940  0.496480  0.421530  0.128662
    C   C141  0.601480  0.590470  0.432000  0.731445
    C   C142  0.121420  0.339530  0.802550  -0.139668
    C   C143  0.119240  0.316390  0.886170  -0.070788
    C   C144  0.170190  0.357800  0.754860  0.138280
    H   H1    0.373210  0.203060  0.308510  -0.011948
    H   H2    0.203060  0.373210  0.191490  -0.011944
    H   H3    0.869730  0.706540  0.524820  -0.011899
    H   H4    0.536390  0.039880  0.858160  -0.012135
    H   H5    0.170150  0.796940  0.191490  -0.012052
    H   H6    0.836820  0.130270  0.524820  -0.012086
    H   H7    0.503480  0.463610  0.858160  -0.012122
    H   H8    0.626790  0.829850  0.191490  -0.016595
    H   H9    0.293460  0.163180  0.524820  -0.016609
    H   H10   0.960120  0.496520  0.858160  -0.016560
    H   H11   0.626790  0.796940  0.691490  -0.011943
    H   H12   0.039880  0.536390  0.641840  -0.012161
    H   H13   0.293460  0.130270  0.024820  -0.011902
    H   H14   0.960120  0.463610  0.358160  -0.012160
    H   H15   0.203060  0.829850  0.691490  -0.012133
    H   H16   0.869730  0.163180  0.024820  -0.012072
    H   H17   0.536390  0.496520  0.358160  -0.012124
    H   H18   0.170150  0.373210  0.691490  -0.016606
    H   H19   0.836820  0.706540  0.024820  -0.016618
    H   H20   0.503480  0.039880  0.358160  -0.016559
    H   H21   0.796940  0.626790  0.808510  -0.012020
    H   H22   0.463610  0.960120  0.141840  -0.012182
    H   H23   0.706540  0.869730  0.975180  -0.011906
    H   H24   0.130270  0.293460  0.475180  -0.011904
    H   H25   0.829850  0.203060  0.808510  -0.012068
    H   H26   0.496520  0.536390  0.141840  -0.012125
    H   H27   0.163180  0.869730  0.475180  -0.012086
    H   H28   0.373210  0.170150  0.808510  -0.016599
    H   H29   0.039880  0.503480  0.141840  -0.016575
    H   H30   0.706540  0.836820  0.475180  -0.016611
    H   H31   0.796940  0.170150  0.308510  -0.012037
    H   H32   0.463610  0.503480  0.641840  -0.012125
    H   H33   0.130270  0.836820  0.975180  -0.012075
    H   H34   0.829850  0.626790  0.308510  -0.016606
    H   H35   0.496520  0.960120  0.641840  -0.016670
    H   H36   0.163180  0.293460  0.975180  -0.016614
    Mn  Mn1   0.312540  0.333330  0.083330  1.200503
    Mn  Mn2   0.687460  0.666670  0.916670  1.200477
    Mn  Mn3   0.354130  0.000000  0.250000  1.200474
    Mn  Mn4   0.020800  0.333330  0.583330  1.200672
    Mn  Mn5   0.333330  0.020800  0.916670  1.200642
    Mn  Mn6   -0.000000  0.354130  0.250000  1.200473
    Mn  Mn7   0.979200  0.312540  0.916670  1.194539
    Mn  Mn8   0.645870  0.645870  0.250000  1.194684
    Mn  Mn9   0.666670  0.687460  0.583330  1.200487
    Mn  Mn10  0.312540  0.979200  0.583330  1.194524
    Mn  Mn11  0.402650  0.402650  0.250000  0.898622
    Mn  Mn12  0.666670  0.979200  0.083330  1.200706
    Mn  Mn13  0.069320  0.735980  0.583330  0.898671
    Mn  Mn14  0.735980  0.069320  0.916670  0.898596
    Mn  Mn15  0.597350  0.000000  0.250000  0.900579
    Mn  Mn16  0.264020  0.333330  0.583330  0.900474
    Mn  Mn17  0.930680  0.666670  0.916670  0.900588
    Mn  Mn18  -0.000000  0.597350  0.250000  0.900450
    Mn  Mn19  0.666670  0.930680  0.583330  0.900511
    Mn  Mn20  0.333330  0.264020  0.916670  0.900459
    Mn  Mn21  0.597350  0.597350  0.750000  0.898601
    Mn  Mn22  0.264020  0.930680  0.083330  0.898609
    Mn  Mn23  0.333330  0.312540  0.416670  1.200525
    Mn  Mn24  0.930680  0.264020  0.416670  0.898641
    Mn  Mn25  0.402650  0.000000  0.750000  0.900492
    Mn  Mn26  0.069320  0.333330  0.083330  0.900539
    Mn  Mn27  0.735980  0.666670  0.416670  0.900463
    Mn  Mn28  -0.000000  0.402650  0.750000  0.900451
    Mn  Mn29  0.666670  0.735980  0.083330  0.900485
    Mn  Mn30  0.333330  0.069320  0.416670  0.900543
    Mn  Mn31  0.020800  0.687460  0.083330  1.194533
    Mn  Mn32  0.354130  0.354130  0.750000  1.194667
    Mn  Mn33  -0.000000  0.645870  0.750000  1.200494
    Mn  Mn34  0.979200  0.666670  0.416670  1.200674
    Mn  Mn35  0.645870  0.000000  0.750000  1.200429
    Mn  Mn36  0.687460  0.020800  0.416670  1.194569
    O   O1    0.371240  0.318470  0.192260  -0.636530
    O   O2    0.387240  0.392000  0.658570  -0.652131
    O   O3    0.014860  0.719440  0.858930  -0.636277
    O   O4    0.053900  0.725340  0.991910  -0.651880
    O   O5    0.947230  0.628760  0.192260  -0.636292
    O   O6    0.941330  0.661900  0.325240  -0.656983
    O   O7    0.613900  0.962090  0.525590  -0.636363
    O   O8    0.608000  0.995230  0.658570  -0.656992
    O   O9    0.280560  0.295430  0.858930  -0.636302
    O   O10   0.274660  0.328570  0.991910  -0.656900
    O   O11   0.318470  0.371240  0.307740  -0.636509
    O   O12   0.338100  0.279430  0.325240  -0.653489
    O   O13   0.279430  0.338100  0.174760  -0.653479
    O   O14   0.985140  0.704570  0.641070  -0.636495
    O   O15   0.946100  0.671430  0.508090  -0.653438
    O   O16   0.651800  0.037910  0.974410  -0.636539
    O   O17   0.612760  0.004770  0.841430  -0.653219
    O   O18   0.052770  0.681530  0.307740  -0.636216
    O   O19   0.058670  0.720570  0.174760  -0.652082
    O   O20   0.719440  0.014860  0.641070  -0.636218
    O   O21   0.725340  0.053900  0.508090  -0.651836
    O   O22   0.386100  0.348200  0.974410  -0.636373
    O   O23   0.037910  0.651800  0.525590  -0.636678
    O   O24   0.392000  0.387240  0.841430  -0.652116
    O   O25   0.628760  0.947230  0.307740  -0.636332
    O   O26   0.661900  0.941330  0.174760  -0.657070
    O   O27   0.295430  0.280560  0.641070  -0.636309
    O   O28   0.328570  0.274660  0.508090  -0.656918
    O   O29   0.962090  0.613900  0.974410  -0.636433
    O   O30   0.995230  0.608000  0.841430  -0.657051
    O   O31   0.628760  0.681530  0.807740  -0.636472
    O   O32   0.661900  0.720570  0.674760  -0.653451
    O   O33   0.295430  0.014860  0.141070  -0.636445
    O   O34   0.004770  0.612760  0.658570  -0.653338
    O   O35   0.328570  0.053900  0.008090  -0.653407
    O   O36   0.962090  0.348200  0.474410  -0.636626
    O   O37   0.995230  0.387240  0.341430  -0.653352
    O   O38   0.318470  0.947230  0.807740  -0.636310
    O   O39   0.279430  0.941330  0.674760  -0.652126
    O   O40   0.985140  0.280560  0.141070  -0.636239
    O   O41   0.946100  0.274660  0.008090  -0.651850
    O   O42   0.651800  0.613900  0.474410  -0.636392
    O   O43   0.612760  0.608000  0.341430  -0.652141
    O   O44   0.052770  0.371240  0.807740  -0.636268
    O   O45   0.704570  0.985140  0.858930  -0.636484
    O   O46   0.058670  0.338100  0.674760  -0.656978
    O   O47   0.719440  0.704570  0.141070  -0.636326
    O   O48   0.725340  0.671430  0.008090  -0.656886
    O   O49   0.386100  0.037910  0.474410  -0.636378
    O   O50   0.392000  0.004770  0.341430  -0.657006
    O   O51   0.681530  0.628760  0.692260  -0.636515
    O   O52   0.720570  0.661900  0.825240  -0.653453
    O   O53   0.348200  0.962090  0.025590  -0.636597
    O   O54   0.387240  0.995230  0.158570  -0.653355
    O   O55   0.014860  0.295430  0.358930  -0.636479
    O   O56   0.671430  0.946100  0.991910  -0.653418
    O   O57   0.053900  0.328570  0.491910  -0.653436
    O   O58   0.947230  0.318470  0.692260  -0.636270
    O   O59   0.941330  0.279430  0.825240  -0.652113
    O   O60   0.613900  0.651800  0.025590  -0.636409
    O   O61   0.608000  0.612760  0.158570  -0.652140
    O   O62   0.280560  0.985140  0.358930  -0.636279
    O   O63   0.274660  0.946100  0.491910  -0.651854
    O   O64   0.371240  0.052770  0.692260  -0.636244
    O   O65   0.338100  0.058670  0.825240  -0.656983
    O   O66   0.037910  0.386100  0.025590  -0.636428
    O   O67   0.681530  0.052770  0.192260  -0.636307
    O   O68   0.004770  0.392000  0.158570  -0.657005
    O   O69   0.704570  0.719440  0.358930  -0.636286
    O   O70   0.671430  0.725340  0.491910  -0.656893
    O   O71   0.720570  0.058670  0.325240  -0.652184
    O   O72   0.348200  0.386100  0.525590  -0.636398
    S   S1    0.287770  0.229100  0.052450  -0.405289
    S   S2    0.229100  0.287770  0.447550  -0.405289
    S   S3    0.895770  0.621100  0.780880  -0.405253
    S   S4    0.562430  0.954440  0.114220  -0.405163
    S   S5    0.058670  0.770900  0.447550  -0.409165
    S   S6    0.725340  0.104230  0.780880  -0.408988
    S   S7    0.392000  0.437570  0.114220  -0.408966
    S   S8    0.712230  0.941330  0.447550  -0.405733
    S   S9    0.378900  0.274660  0.780880  -0.405762
    S   S10   0.045560  0.608000  0.114220  -0.405906
    S   S11   0.712230  0.770900  0.947550  -0.405287
    S   S12   0.954440  0.562430  0.385780  -0.405311
    S   S13   0.378900  0.104230  0.280880  -0.405165
    S   S14   0.045560  0.437570  0.614220  -0.405289
    S   S15   0.229100  0.941330  0.947550  -0.409150
    S   S16   0.895770  0.274660  0.280880  -0.409070
    S   S17   0.562430  0.608000  0.614220  -0.408966
    S   S18   0.058670  0.287770  0.947550  -0.405738
    S   S19   0.725340  0.621100  0.280880  -0.405761
    S   S20   0.392000  0.954440  0.614220  -0.405724
    S   S21   0.770900  0.712230  0.552450  -0.405279
    S   S22   0.437570  0.045560  0.885780  -0.405308
    S   S23   0.621100  0.895770  0.719120  -0.405147
    S   S24   0.104230  0.378900  0.219120  -0.405151
    S   S25   0.941330  0.229100  0.552450  -0.409153
    S   S26   0.608000  0.562430  0.885780  -0.408962
    S   S27   0.274660  0.895770  0.219120  -0.409050
    S   S28   0.287770  0.058670  0.552450  -0.405746
    S   S29   0.954440  0.392000  0.885780  -0.405909
    S   S30   0.621100  0.725340  0.219120  -0.405755
    S   S31   0.770900  0.058670  0.052450  -0.409154
    S   S32   0.437570  0.392000  0.385780  -0.408977
    S   S33   0.104230  0.725340  0.719120  -0.409030
    S   S34   0.941330  0.712230  0.052450  -0.405744
    S   S35   0.608000  0.045560  0.385780  -0.405776
    S   S36   0.274660  0.378900  0.719120  -0.405749
