# Generated by REPEAT Assigner based on pymatgen
data_DB13-nbo-Syn031419
_audit_creation_date              2022-05-24
_audit_creation_method            REPEAT_Assigner
_cell_length_a                    22.256000
_cell_length_b                    22.256000
_cell_length_c                    22.256000
_cell_angle_alpha                 90.000000
_cell_angle_beta                  90.000000
_cell_angle_gamma                 90.000000
_cell_volume                      11024.054153
_symmetry_space_group_name_H-M    P1
_symmetry_Int_Tables_number       1
loop_
    _symmetry_equiv_pos_site_id
    _symmetry_equiv_pos_as_xyz
    1  x,y,z
loop_
    _atom_site_type_symbol
    _atom_site_label
    _atom_site_fract_x
    _atom_site_fract_y
    _atom_site_fract_z
    _atom_type_partial_charge
    C   C1    0.957641  0.451529  0.211415  -0.246047
    C   C2    0.987822  0.495844  0.182152  -0.168109
    C   C3    0.017507  0.544128  0.222262  0.530048
    C   C4    0.017594  0.547748  0.289839  -0.125252
    C   C5    0.995220  0.499016  0.318860  -0.392194
    C   C6    0.963012  0.452402  0.283299  0.651050
    C   C7    0.080823  0.401864  0.822635  -0.070868
    C   C8    0.000000  0.613316  0.500000  0.958791
    C   C9    0.090134  0.348146  0.794482  0.378913
    C   C10   0.156546  0.309346  0.867095  0.809197
    C   C11   0.149498  0.362024  0.899402  -0.325301
    C   C12   0.109238  0.406273  0.878658  0.005467
    C   C13   0.175229  0.372358  0.957794  0.071998
    C   C14   0.216647  0.332613  0.981185  -0.241482
    C   C15   0.224730  0.277890  0.952475  0.046059
    C   C16   0.193538  0.265411  0.898350  -0.492206
    C   C17   0.042359  0.451529  0.788585  -0.190881
    C   C18   0.012178  0.495844  0.817848  -0.178618
    C   C19   0.982493  0.544128  0.777738  0.544350
    C   C20   0.982406  0.547748  0.710161  -0.139794
    C   C21   0.004780  0.499016  0.681140  -0.351694
    C   C22   0.036988  0.452402  0.716701  0.626598
    C   C23   0.177365  0.919177  0.401864  -0.019842
    C   C24   0.205518  0.909866  0.348146  0.235541
    C   C25   0.132905  0.843454  0.309346  0.546884
    C   C26   0.100598  0.850502  0.362024  -0.305045
    C   C27   0.121342  0.890762  0.406273  0.020042
    C   C28   0.042206  0.824771  0.372358  0.319313
    C   C29   0.018815  0.783353  0.332613  -0.213627
    C   C30   0.047525  0.775270  0.277890  -0.089165
    C   C31   0.101650  0.806462  0.265411  -0.279460
    C   C32   0.211415  0.957641  0.451529  -0.194065
    C   C33   0.182152  0.987822  0.495844  -0.118211
    C   C34   0.222262  0.017507  0.544128  0.410114
    C   C35   0.289839  0.017594  0.547748  -0.157145
    C   C36   0.318860  0.995220  0.499016  -0.311764
    C   C37   0.283299  0.963012  0.452402  0.644277
    C   C38   0.822635  0.080823  0.401864  -0.162565
    C   C39   0.386684  0.000000  0.500000  0.935301
    C   C40   0.794482  0.090134  0.348146  0.366328
    C   C41   0.867095  0.156546  0.309346  0.855036
    C   C42   0.899402  0.149498  0.362024  -0.466932
    C   C43   0.878658  0.109238  0.406273  0.141259
    C   C44   0.957794  0.175229  0.372358  0.322411
    C   C45   0.981185  0.216647  0.332613  -0.232195
    C   C46   0.952475  0.224730  0.277890  -0.009870
    C   C47   0.898350  0.193538  0.265411  -0.493998
    C   C48   0.788585  0.042359  0.451529  -0.109646
    C   C49   0.817848  0.012178  0.495844  -0.136193
    C   C50   0.777738  0.982493  0.544128  0.413490
    C   C51   0.710161  0.982406  0.547748  -0.202372
    C   C52   0.681140  0.004780  0.499016  -0.274559
    C   C53   0.716701  0.036988  0.452402  0.558391
    C   C54   0.401864  0.177365  0.919177  0.099261
    C   C55   0.348146  0.205518  0.909866  0.200228
    C   C56   0.309346  0.132905  0.843454  0.490786
    C   C57   0.362024  0.100598  0.850502  -0.115931
    C   C58   0.406273  0.121342  0.890762  -0.151670
    C   C59   0.500000  0.000000  0.386684  0.961764
    C   C60   0.372358  0.042206  0.824771  0.020226
    C   C61   0.332613  0.018815  0.783353  -0.175453
    C   C62   0.277890  0.047525  0.775270  -0.150792
    C   C63   0.265411  0.101650  0.806462  -0.275073
    C   C64   0.000000  0.500000  0.386684  1.020013
    C   C65   0.451529  0.211415  0.957641  -0.241423
    C   C66   0.495844  0.182152  0.987822  -0.170571
    C   C67   0.544128  0.222262  0.017507  0.523488
    C   C68   0.547748  0.289839  0.017594  -0.108367
    C   C69   0.499016  0.318860  0.995220  -0.357179
    C   C70   0.452402  0.283299  0.963012  0.642498
    C   C71   0.401864  0.822635  0.080823  -0.073683
    C   C72   0.348146  0.794482  0.090134  0.397492
    C   C73   0.309346  0.867095  0.156546  0.790377
    C   C74   0.362024  0.899402  0.149498  -0.343347
    C   C75   0.406273  0.878658  0.109238  0.016261
    C   C76   0.372358  0.957794  0.175229  0.138723
    C   C77   0.332613  0.981185  0.216647  -0.362702
    C   C78   0.277890  0.952475  0.224730  0.170964
    C   C79   0.265411  0.898350  0.193538  -0.493124
    C   C80   0.613316  0.000000  0.500000  0.958666
    C   C81   0.451529  0.788585  0.042359  -0.198715
    C   C82   0.495844  0.817848  0.012178  -0.164469
    C   C83   0.544128  0.777738  0.982493  0.534718
    C   C84   0.547748  0.710161  0.982406  -0.152435
    C   C85   0.499016  0.681140  0.004780  -0.354531
    C   C86   0.452402  0.716701  0.036988  0.613963
    C   C87   0.401864  0.919177  0.822635  0.084806
    C   C88   0.348146  0.909866  0.794482  0.216802
    C   C89   0.309346  0.843454  0.867095  0.498933
    C   C90   0.362024  0.850502  0.899402  -0.150703
    C   C91   0.406273  0.890762  0.878658  -0.118788
    C   C92   0.372358  0.824771  0.957794  0.061336
    C   C93   0.332613  0.783353  0.981185  -0.235482
    C   C94   0.277890  0.775270  0.952475  -0.056373
    C   C95   0.265411  0.806462  0.898350  -0.285747
    C   C96   0.500000  0.000000  0.613316  1.020088
    C   C97   0.451529  0.957641  0.788585  -0.246903
    C   C98   0.495844  0.987822  0.817848  -0.167550
    C   C99   0.544128  0.017507  0.777738  0.529674
    C   C100  0.547748  0.017594  0.710161  -0.125017
    C   C101  0.499016  0.995220  0.681140  -0.392522
    C   C102  0.452402  0.963012  0.716701  0.651704
    C   C103  0.401864  0.080823  0.177365  -0.070881
    C   C104  0.348146  0.090134  0.205518  0.378915
    C   C105  0.309346  0.156546  0.132905  0.809173
    C   C106  0.362024  0.149498  0.100598  -0.325266
    C   C107  0.406273  0.109238  0.121342  0.005430
    C   C108  0.372358  0.175229  0.042206  0.071978
    C   C109  0.332613  0.216647  0.018815  -0.241457
    C   C110  0.277890  0.224730  0.047525  0.046049
    C   C111  0.265411  0.193538  0.101650  -0.492199
    C   C112  0.451529  0.042359  0.211415  -0.190757
    C   C113  0.495844  0.012178  0.182152  -0.178743
    C   C114  0.544128  0.982493  0.222262  0.544553
    C   C115  0.547748  0.982406  0.289839  -0.139918
    C   C116  0.499016  0.004780  0.318860  -0.351680
    C   C117  0.452402  0.036988  0.283299  0.626546
    C   C118  0.919177  0.177365  0.598136  -0.019954
    C   C119  0.909866  0.205518  0.651854  0.235577
    C   C120  0.843454  0.132905  0.690654  0.546866
    C   C121  0.850502  0.100598  0.637976  -0.305027
    C   C122  0.890762  0.121342  0.593727  0.020130
    C   C123  0.824771  0.042206  0.627642  0.319171
    C   C124  0.783353  0.018815  0.667387  -0.213529
    C   C125  0.775270  0.047525  0.722110  -0.089219
    C   C126  0.806462  0.101650  0.734589  -0.279404
    C   C127  0.500000  0.386684  0.000000  0.959234
    C   C128  0.957641  0.211415  0.548471  -0.193892
    C   C129  0.987822  0.182152  0.504156  -0.118336
    C   C130  0.017507  0.222262  0.455872  0.410083
    C   C131  0.017594  0.289839  0.452252  -0.157051
    C   C132  0.995220  0.318860  0.500984  -0.311793
    C   C133  0.963012  0.283299  0.547598  0.644171
    C   C134  0.080823  0.822635  0.598136  -0.162602
    C   C135  0.090134  0.794482  0.651854  0.366326
    C   C136  0.156546  0.867095  0.690654  0.855041
    C   C137  0.149498  0.899402  0.637976  -0.466980
    C   C138  0.109238  0.878658  0.593727  0.141316
    C   C139  0.175229  0.957794  0.627642  0.322466
    C   C140  0.216647  0.981185  0.667387  -0.232178
    C   C141  0.224730  0.952475  0.722110  -0.009917
    C   C142  0.193538  0.898350  0.734589  -0.493984
    C   C143  0.042359  0.788585  0.548471  -0.109583
    C   C144  0.012178  0.817848  0.504156  -0.136232
    C   C145  0.982493  0.777738  0.455872  0.413487
    C   C146  0.982406  0.710161  0.452252  -0.202344
    C   C147  0.386684  0.500000  0.000000  0.959271
    C   C148  0.004780  0.681140  0.500984  -0.274577
    C   C149  0.036988  0.716701  0.547598  0.558341
    C   C150  0.177365  0.401864  0.080823  0.099323
    C   C151  0.205518  0.348146  0.090134  0.200223
    C   C152  0.132905  0.309346  0.156546  0.490751
    C   C153  0.100598  0.362024  0.149498  -0.115842
    C   C154  0.121342  0.406273  0.109238  -0.151826
    C   C155  0.042206  0.372358  0.175229  0.020115
    C   C156  0.018815  0.332613  0.216647  -0.175456
    C   C157  0.047525  0.277890  0.224730  -0.150823
    C   C158  0.101650  0.265411  0.193538  -0.275047
    C   C159  0.211415  0.451529  0.042359  -0.241481
    C   C160  0.182152  0.495844  0.012178  -0.170515
    C   C161  0.222262  0.544128  0.982493  0.523516
    C   C162  0.289839  0.547748  0.982406  -0.108412
    C   C163  0.318860  0.499016  0.004780  -0.357191
    C   C164  0.283299  0.452402  0.036988  0.642504
    C   C165  0.822635  0.401864  0.919177  -0.073367
    C   C166  0.500000  0.613316  0.000000  0.996103
    C   C167  0.794482  0.348146  0.909866  0.397284
    C   C168  0.867095  0.309346  0.843454  0.790386
    C   C169  0.899402  0.362024  0.850502  -0.343463
    C   C170  0.878658  0.406273  0.890762  0.016357
    C   C171  0.957794  0.372358  0.824771  0.138860
    C   C172  0.981185  0.332613  0.783353  -0.362767
    C   C173  0.952475  0.277890  0.775270  0.170987
    C   C174  0.898350  0.265411  0.806462  -0.493122
    C   C175  0.788585  0.451529  0.957641  -0.199433
    C   C176  0.817848  0.495844  0.987822  -0.164055
    C   C177  0.777738  0.544128  0.017507  0.534528
    C   C178  0.710161  0.547748  0.017594  -0.152323
    C   C179  0.681140  0.499016  0.995220  -0.354803
    C   C180  0.716701  0.452402  0.963012  0.614579
    C   C181  0.613316  0.500000  0.000000  0.996158
    C   C182  0.500000  0.000000  0.886684  0.723743
    C   C183  0.500000  0.886684  0.000000  0.726932
    C   C184  0.000000  0.386684  0.500000  0.935361
    C   C185  0.500000  0.000000  0.113316  0.738087
    C   C186  0.500000  0.113316  0.000000  0.730770
    C   C187  0.886684  0.500000  0.000000  0.726864
    C   C188  0.000000  0.500000  0.886684  0.738400
    C   C189  0.113316  0.500000  0.000000  0.730675
    C   C190  0.000000  0.500000  0.113316  0.723538
    C   C191  0.000000  0.886684  0.500000  0.729423
    C   C192  0.886684  0.000000  0.500000  0.729376
    C   C193  0.000000  0.113316  0.500000  0.734605
    C   C194  0.000000  0.500000  0.613316  0.961722
    C   C195  0.113316  0.000000  0.500000  0.734500
    C   C196  0.919177  0.401864  0.177365  0.084416
    C   C197  0.909866  0.348146  0.205518  0.217026
    C   C198  0.843454  0.309346  0.132905  0.498942
    C   C199  0.850502  0.362024  0.100598  -0.150657
    C   C200  0.890762  0.406273  0.121342  -0.118759
    C   C201  0.824771  0.372358  0.042206  0.061293
    C   C202  0.783353  0.332613  0.018815  -0.235417
    C   C203  0.775270  0.277890  0.047525  -0.056336
    C   C204  0.806462  0.265411  0.101650  -0.285776
    Cu  Cu1   0.940347  0.500000  0.500000  1.025765
    Cu  Cu2   0.059653  0.500000  0.500000  1.021913
    Cu  Cu3   0.500000  0.940347  0.500000  1.025757
    Cu  Cu4   0.500000  0.059653  0.500000  1.021883
    Cu  Cu5   0.500000  0.500000  0.940347  1.013317
    Cu  Cu6   0.500000  0.500000  0.059653  1.013297
    Cu  Cu7   0.440347  0.000000  0.000000  0.719163
    Cu  Cu8   0.559653  0.000000  0.000000  0.991905
    Cu  Cu9   0.000000  0.440347  0.000000  0.719158
    Cu  Cu10  0.000000  0.559653  0.000000  0.991902
    Cu  Cu11  0.000000  0.000000  0.440347  0.904443
    Cu  Cu12  0.000000  0.000000  0.559653  0.904462
    H   H1    0.036942  0.585048  0.317453  0.149253
    H   H2    0.063824  0.337762  0.754763  0.061879
    H   H3    0.100452  0.446931  0.903021  0.101488
    H   H4    0.168846  0.414062  0.980893  0.013989
    H   H5    0.238558  0.343207  0.023702  0.185958
    H   H6    0.256008  0.243992  0.974028  0.129102
    H   H7    0.202985  0.223794  0.876279  0.200151
    H   H8    0.963058  0.585048  0.682547  0.171936
    H   H9    0.245237  0.936176  0.337762  0.110552
    H   H10   0.096979  0.899548  0.446931  0.103157
    H   H11   0.019107  0.831154  0.414062  -0.188393
    H   H12   0.976298  0.761442  0.343207  0.152628
    H   H13   0.025972  0.743992  0.243992  0.144295
    H   H14   0.123721  0.797015  0.223794  0.134478
    H   H15   0.317453  0.036942  0.585048  0.168906
    H   H16   0.754763  0.063824  0.337762  0.087674
    H   H17   0.903021  0.100452  0.446931  0.078230
    H   H18   0.980893  0.168846  0.414062  -0.159792
    H   H19   0.023702  0.238558  0.343207  0.126131
    H   H20   0.974028  0.256008  0.243992  0.209322
    H   H21   0.876279  0.202985  0.223794  0.196599
    H   H22   0.682547  0.963058  0.585048  0.178804
    H   H23   0.337762  0.245237  0.936176  0.075142
    H   H24   0.446931  0.096979  0.899548  0.128083
    H   H25   0.414062  0.019107  0.831154  0.013895
    H   H26   0.343207  0.976298  0.761442  0.151789
    H   H27   0.243992  0.025972  0.743992  0.162506
    H   H28   0.223794  0.123721  0.797015  0.129964
    H   H29   0.585048  0.317453  0.036942  0.147138
    H   H30   0.337762  0.754763  0.063824  0.065424
    H   H31   0.446931  0.903021  0.100452  0.092932
    H   H32   0.414062  0.980893  0.168846  -0.028997
    H   H33   0.343207  0.023702  0.238558  0.293792
    H   H34   0.243992  0.974028  0.256008  0.050523
    H   H35   0.223794  0.876279  0.202985  0.201781
    H   H36   0.585048  0.682547  0.963058  0.168301
    H   H37   0.337762  0.936176  0.754763  0.074858
    H   H38   0.446931  0.899548  0.903021  0.117410
    H   H39   0.414062  0.831154  0.980893  -0.033240
    H   H40   0.343207  0.761442  0.023702  0.246922
    H   H41   0.243992  0.743992  0.974028  0.135403
    H   H42   0.223794  0.797015  0.876279  0.137518
    H   H43   0.585048  0.036942  0.682547  0.149229
    H   H44   0.337762  0.063824  0.245237  0.061887
    H   H45   0.446931  0.100452  0.096979  0.101536
    H   H46   0.414062  0.168846  0.019107  0.013970
    H   H47   0.343207  0.238558  0.976298  0.185939
    H   H48   0.243992  0.256008  0.025972  0.129097
    H   H49   0.223794  0.202985  0.123721  0.200150
    H   H50   0.585048  0.963058  0.317453  0.171959
    H   H51   0.936176  0.245237  0.662238  0.110561
    H   H52   0.899548  0.096979  0.553069  0.103114
    H   H53   0.831154  0.019107  0.585938  -0.188313
    H   H54   0.761442  0.976298  0.656793  0.152606
    H   H55   0.743992  0.025972  0.756008  0.144301
    H   H56   0.797015  0.123721  0.776206  0.134463
    H   H57   0.036942  0.317453  0.414952  0.168903
    H   H58   0.063824  0.754763  0.662238  0.087675
    H   H59   0.100452  0.903021  0.553069  0.078213
    H   H60   0.168846  0.980893  0.585938  -0.159847
    H   H61   0.238558  0.023702  0.656793  0.126160
    H   H62   0.256008  0.974028  0.756008  0.209379
    H   H63   0.202985  0.876279  0.776206  0.196587
    H   H64   0.963058  0.682547  0.414952  0.178797
    H   H65   0.245237  0.337762  0.063824  0.075126
    H   H66   0.096979  0.446931  0.100452  0.128205
    H   H67   0.019107  0.414062  0.168846  0.013970
    H   H68   0.976298  0.343207  0.238558  0.151941
    H   H69   0.025972  0.243992  0.256008  0.162541
    H   H70   0.123721  0.223794  0.202985  0.129956
    H   H71   0.317453  0.585048  0.963058  0.147165
    H   H72   0.754763  0.337762  0.936176  0.065571
    H   H73   0.903021  0.446931  0.899548  0.092835
    H   H74   0.980893  0.414062  0.831154  -0.029089
    H   H75   0.023702  0.343207  0.761442  0.293830
    H   H76   0.974028  0.243992  0.743992  0.050513
    H   H77   0.876279  0.223794  0.797015  0.201774
    H   H78   0.682547  0.585048  0.036942  0.168297
    H   H79   0.936176  0.337762  0.245237  0.074722
    H   H80   0.899548  0.446931  0.096979  0.117449
    H   H81   0.831154  0.414062  0.019107  -0.033254
    H   H82   0.761442  0.343207  0.976298  0.246766
    H   H83   0.743992  0.243992  0.025972  0.135398
    H   H84   0.797015  0.223794  0.123721  0.137521
    N   N1    0.126413  0.301521  0.815647  -0.748795
    N   N2    0.184353  0.873587  0.301521  -0.533700
    N   N3    0.815647  0.126413  0.301521  -0.732889
    N   N4    0.301521  0.184353  0.873587  -0.514127
    N   N5    0.301521  0.815647  0.126413  -0.741449
    N   N6    0.301521  0.873587  0.815647  -0.525828
    N   N7    0.301521  0.126413  0.184353  -0.748783
    N   N8    0.873587  0.184353  0.698479  -0.533713
    N   N9    0.126413  0.815647  0.698479  -0.732881
    N   N10   0.184353  0.301521  0.126413  -0.514109
    N   N11   0.815647  0.301521  0.873587  -0.741404
    N   N12   0.873587  0.301521  0.184353  -0.525877
    O   O1    0.952527  0.500000  0.585908  -0.666627
    O   O2    0.045258  0.585325  0.199660  -0.441492
    O   O3    0.939115  0.407442  0.305978  -0.469320
    O   O4    0.047473  0.585908  0.500000  -0.668817
    O   O5    0.954742  0.585325  0.800340  -0.440550
    O   O6    0.952527  0.585908  0.500000  -0.683452
    O   O7    0.060885  0.407442  0.694022  -0.471696
    O   O8    0.199660  0.045258  0.585325  -0.371698
    O   O9    0.305978  0.939115  0.407442  -0.465661
    O   O10   0.414092  0.047473  0.500000  -0.657686
    O   O11   0.800340  0.954742  0.585325  -0.365747
    O   O12   0.414092  0.952527  0.500000  -0.644684
    O   O13   0.694022  0.060885  0.407442  -0.422784
    O   O14   0.500000  0.047473  0.414092  -0.625955
    O   O15   0.585325  0.199660  0.045258  -0.438858
    O   O16   0.407442  0.305978  0.939115  -0.465129
    O   O17   0.500000  0.952527  0.414092  -0.666630
    O   O18   0.585325  0.800340  0.954742  -0.438367
    O   O19   0.585908  0.047473  0.500000  -0.668771
    O   O20   0.407442  0.694022  0.060885  -0.479033
    O   O21   0.585908  0.952527  0.500000  -0.683394
    O   O22   0.585325  0.045258  0.800340  -0.441429
    O   O23   0.407442  0.939115  0.694022  -0.469417
    O   O24   0.500000  0.047473  0.585908  -0.685303
    O   O25   0.500000  0.952527  0.585908  -0.661745
    O   O26   0.585325  0.954742  0.199660  -0.440582
    O   O27   0.407442  0.060885  0.305978  -0.471702
    O   O28   0.047473  0.500000  0.414092  -0.685302
    O   O29   0.045258  0.199660  0.414675  -0.371697
    O   O30   0.939115  0.305978  0.592558  -0.465656
    O   O31   0.500000  0.414092  0.047473  -0.660604
    O   O32   0.500000  0.414092  0.952527  -0.633187
    O   O33   0.954742  0.800340  0.414675  -0.365747
    O   O34   0.060885  0.694022  0.592558  -0.422777
    O   O35   0.414092  0.500000  0.047473  -0.633167
    O   O36   0.414092  0.500000  0.952527  -0.660629
    O   O37   0.199660  0.585325  0.954742  -0.438868
    O   O38   0.305978  0.407442  0.060885  -0.465122
    O   O39   0.500000  0.585908  0.047473  -0.648499
    O   O40   0.800340  0.585325  0.045258  -0.438327
    O   O41   0.500000  0.585908  0.952527  -0.692954
    O   O42   0.694022  0.407442  0.939115  -0.479150
    O   O43   0.952527  0.500000  0.414092  -0.661711
    O   O44   0.585908  0.500000  0.047473  -0.692934
    O   O45   0.585908  0.500000  0.952527  -0.648542
    O   O46   0.547473  0.000000  0.914092  -0.582005
    O   O47   0.452527  0.000000  0.914092  -0.426257
    O   O48   0.547473  0.914092  0.000000  -0.584618
    O   O49   0.452527  0.914092  0.000000  -0.411424
    O   O50   0.547473  0.000000  0.085908  -0.579534
    O   O51   0.452527  0.000000  0.085908  -0.436531
    O   O52   0.547473  0.085908  0.000000  -0.578539
    O   O53   0.452527  0.085908  0.000000  -0.434703
    O   O54   0.914092  0.547473  0.000000  -0.584637
    O   O55   0.047473  0.414092  0.500000  -0.657734
    O   O56   0.914092  0.452527  0.000000  -0.411411
    O   O57   0.000000  0.547473  0.914092  -0.579651
    O   O58   0.000000  0.452527  0.914092  -0.436602
    O   O59   0.085908  0.547473  0.000000  -0.578527
    O   O60   0.085908  0.452527  0.000000  -0.434687
    O   O61   0.000000  0.547473  0.085908  -0.581864
    O   O62   0.000000  0.452527  0.085908  -0.426191
    O   O63   0.952527  0.414092  0.500000  -0.644673
    O   O64   0.000000  0.914092  0.547473  -0.597569
    O   O65   0.000000  0.914092  0.452527  -0.452167
    O   O66   0.914092  0.000000  0.547473  -0.452169
    O   O67   0.914092  0.000000  0.452527  -0.597549
    O   O68   0.000000  0.085908  0.547473  -0.595770
    O   O69   0.000000  0.085908  0.452527  -0.464835
    O   O70   0.085908  0.000000  0.547473  -0.464831
    O   O71   0.085908  0.000000  0.452527  -0.595733
    O   O72   0.047473  0.500000  0.585908  -0.625961
