# Generated by REPEAT Assigner based on pymatgen
data_DB13-cds-Syn027325
_audit_creation_date              2022-05-24
_audit_creation_method            REPEAT_Assigner
_cell_length_a                    11.072300
_cell_length_b                    11.072300
_cell_length_c                    22.144500
_cell_angle_alpha                 90.000000
_cell_angle_beta                  90.000000
_cell_angle_gamma                 90.000000
_cell_volume                      2714.823297
_symmetry_space_group_name_H-M    P1
_symmetry_Int_Tables_number       1
loop_
    _symmetry_equiv_pos_site_id
    _symmetry_equiv_pos_as_xyz
    1  x,y,z
loop_
    _atom_site_type_symbol
    _atom_site_label
    _atom_site_fract_x
    _atom_site_fract_y
    _atom_site_fract_z
    _atom_type_partial_charge
    Cu  Cu1  0.880093  0.000000  0.000000  0.934363
    Cu  Cu2  0.119907  0.000000  0.000000  0.995083
    C   C1   0.000000  0.000000  0.886114  0.869661
    O   O1   0.095423  0.000000  0.913660  -0.629499
    O   O2   0.904577  0.000000  0.913660  -0.583055
    C   C2   0.000000  0.772227  0.000000  0.821420
    O   O3   0.095423  0.827320  0.000000  -0.598111
    O   O4   0.904577  0.827320  0.000000  -0.521482
    C   C3   0.000000  0.000000  0.113886  0.785992
    O   O5   0.095423  0.000000  0.086340  -0.653443
    O   O6   0.904577  0.000000  0.086340  -0.627962
    C   C4   0.000000  0.227773  0.000000  0.657975
    O   O7   0.095423  0.172680  0.000000  -0.535681
    O   O8   0.904577  0.172680  0.000000  -0.555299
    Cu  Cu3  0.000000  0.880093  0.500000  0.937533
    Cu  Cu4  0.000000  0.119907  0.500000  0.975680
    C   C5   0.000000  0.000000  0.386114  0.884854
    O   O9   0.000000  0.095423  0.413660  -0.634831
    O   O10  0.000000  0.904577  0.413660  -0.601108
    C   C6   0.227773  0.000000  0.500000  0.810566
    O   O11  0.172680  0.095423  0.500000  -0.590562
    O   O12  0.172680  0.904577  0.500000  -0.489818
    C   C7   0.000000  0.000000  0.613886  0.780214
    O   O13  0.000000  0.095423  0.586340  -0.651280
    O   O14  0.000000  0.904577  0.586340  -0.624032
    C   C8   0.772227  0.000000  0.500000  0.650614
    O   O15  0.827320  0.095423  0.500000  -0.531048
    O   O16  0.827320  0.904577  0.500000  -0.547558
    Br  Br1  0.791931  0.173265  0.683053  0.014048
    C   C9   0.901050  0.064842  0.720183  -0.312147
    C   C10  0.995449  0.012685  0.688437  0.323960
    N   N1   0.089892  0.955012  0.718239  -0.563749
    C   C11  0.091188  0.946816  0.780884  0.415306
    C   C12  0.004069  0.001056  0.814666  -0.494243
    C   C13  0.906961  0.058024  0.782340  0.506416
    O   O17  0.814147  0.104598  0.818002  -0.407551
    C   C14  0.209821  0.893475  0.803969  0.375391
    H   H1   0.760545  0.145813  0.789468  0.272382
    H   H2   0.266067  0.891698  0.764475  -0.011871
    N   N2   0.189795  0.770314  0.825470  -0.937778
    H   H3   0.151368  0.783318  0.865547  0.371522
    H   H4   0.270349  0.729651  0.828235  0.362192
    H   H5   0.258161  0.948586  0.839639  -0.090501
    Br  Br2  0.826735  0.791931  0.183053  -0.042044
    C   C15  0.935158  0.901050  0.220183  -0.292774
    C   C16  0.987315  0.995449  0.188437  0.326759
    N   N3   0.044988  0.089892  0.218239  -0.563621
    C   C17  0.053184  0.091188  0.280884  0.411057
    C   C18  0.998944  0.004069  0.314666  -0.509300
    C   C19  0.941976  0.906961  0.282340  0.522756
    O   O18  0.895402  0.814147  0.318002  -0.419086
    C   C20  0.106525  0.209821  0.303969  0.386768
    H   H6   0.854187  0.760545  0.289468  0.290620
    H   H7   0.108302  0.266067  0.264475  -0.014270
    N   N4   0.229686  0.189795  0.325470  -0.941955
    H   H8   0.216682  0.151368  0.365547  0.369730
    H   H9   0.270349  0.270349  0.328235  0.363790
    H   H10  0.051414  0.258161  0.339639  -0.091923
    Br  Br3  0.269644  0.366107  0.987695  0.051947
    C   C21  0.115818  0.440366  0.987941  -0.384001
    C   C22  0.012188  0.376874  0.002876  0.375106
    N   N5   0.904626  0.436478  0.015876  -0.585519
    C   C23  0.897914  0.561768  0.013436  0.494266
    C   C24  0.997869  0.629332  0.001812  -0.539422
    C   C25  0.106818  0.564680  0.987621  0.577687
    O   O19  0.205380  0.636004  0.971272  -0.411103
    C   C26  0.776309  0.607937  0.036521  0.092579
    H   H11  0.272426  0.578937  0.966893  0.244868
    H   H12  0.735281  0.528949  0.055778  0.069324
    N   N6   0.703382  0.650939  0.985896  -0.783130
    H   H13  0.739749  0.731094  0.976908  0.262097
    H   H14  0.617668  0.656471  0.000000  0.334482
    H   H15  0.781098  0.679277  0.073096  0.040718
    Br  Br4  0.633893  0.269644  0.487695  0.069185
    C   C27  0.559634  0.115818  0.487941  -0.353857
    C   C28  0.623126  0.012188  0.502876  0.349908
    N   N7   0.563522  0.904626  0.515876  -0.596892
    C   C29  0.438232  0.897914  0.513436  0.520722
    C   C30  0.370668  0.997869  0.501812  -0.527447
    C   C31  0.435320  0.106818  0.487621  0.538338
    O   O20  0.363996  0.205380  0.471272  -0.391989
    C   C32  0.392063  0.776309  0.536521  0.170358
    H   H16  0.421063  0.272426  0.466893  0.230130
    H   H17  0.471051  0.735281  0.555778  0.054249
    N   N8   0.349061  0.703382  0.485896  -0.836954
    H   H18  0.268906  0.739749  0.476908  0.271159
    H   H19  0.343529  0.617668  0.500000  0.350449
    H   H20  0.320723  0.781098  0.573096  -0.036324
