# Generated by REPEAT Assigner based on pymatgen
data_DB13-nbo-Syn025941
_audit_creation_date              2022-05-24
_audit_creation_method            REPEAT_Assigner
_cell_length_a                    21.946300
_cell_length_b                    21.946300
_cell_length_c                    21.946300
_cell_angle_alpha                 90.000000
_cell_angle_beta                  90.000000
_cell_angle_gamma                 90.000000
_cell_volume                      10570.217769
_symmetry_space_group_name_H-M    P1
_symmetry_Int_Tables_number       1
loop_
    _symmetry_equiv_pos_site_id
    _symmetry_equiv_pos_as_xyz
    1  x,y,z
loop_
    _atom_site_type_symbol
    _atom_site_label
    _atom_site_fract_x
    _atom_site_fract_y
    _atom_site_fract_z
    _atom_type_partial_charge
    Cu  Cu1   0.939505  0.500000  0.500000  0.958363
    Cu  Cu2   0.060495  0.500000  0.500000  0.948902
    C   C1    0.000000  0.500000  0.385085  0.935995
    O   O1    0.048142  0.500000  0.412880  -0.650385
    O   O2    0.951858  0.500000  0.412880  -0.650347
    C   C2    0.000000  0.385085  0.500000  0.951953
    O   O3    0.048142  0.412880  0.500000  -0.665970
    O   O4    0.951858  0.412880  0.500000  -0.642190
    C   C3    0.000000  0.500000  0.614915  0.925204
    O   O5    0.048142  0.500000  0.587120  -0.660193
    O   O6    0.951858  0.500000  0.587120  -0.654850
    C   C4    0.000000  0.614915  0.500000  0.967104
    O   O7    0.048142  0.587120  0.500000  -0.646956
    O   O8    0.951858  0.587120  0.500000  -0.665247
    Cu  Cu3   0.500000  0.939505  0.500000  0.958296
    Cu  Cu4   0.500000  0.060495  0.500000  0.948932
    C   C5    0.385085  0.000000  0.500000  0.951966
    O   O9    0.412880  0.048142  0.500000  -0.665968
    O   O10   0.412880  0.951858  0.500000  -0.642209
    C   C6    0.500000  0.000000  0.385085  0.925232
    O   O11   0.500000  0.048142  0.412880  -0.660195
    O   O12   0.500000  0.951858  0.412880  -0.654866
    C   C7    0.614915  0.000000  0.500000  0.967120
    O   O13   0.587120  0.048142  0.500000  -0.646951
    O   O14   0.587120  0.951858  0.500000  -0.665269
    C   C8    0.500000  0.000000  0.614915  0.936015
    O   O15   0.500000  0.048142  0.587120  -0.650385
    O   O16   0.500000  0.951858  0.587120  -0.650362
    Cu  Cu5   0.500000  0.500000  0.939505  0.958476
    Cu  Cu6   0.500000  0.500000  0.060495  0.958573
    C   C9    0.500000  0.385085  0.000000  0.935721
    O   O17   0.500000  0.412880  0.048142  -0.655516
    O   O18   0.500000  0.412880  0.951858  -0.653692
    C   C10   0.385085  0.500000  0.000000  0.935706
    O   O19   0.412880  0.500000  0.048142  -0.653652
    O   O20   0.412880  0.500000  0.951858  -0.655526
    C   C11   0.500000  0.614915  0.000000  0.941421
    O   O21   0.500000  0.587120  0.048142  -0.660221
    O   O22   0.500000  0.587120  0.951858  -0.650057
    C   C12   0.614915  0.500000  0.000000  0.941404
    O   O23   0.587120  0.500000  0.048142  -0.650040
    O   O24   0.587120  0.500000  0.951858  -0.660248
    Cu  Cu7   0.439505  0.000000  0.000000  1.044174
    Cu  Cu8   0.560495  0.000000  0.000000  1.057106
    C   C13   0.500000  0.000000  0.885085  0.973794
    O   O25   0.548142  0.000000  0.912880  -0.706161
    O   O26   0.451858  0.000000  0.912880  -0.684222
    C   C14   0.500000  0.885085  0.000000  0.985003
    O   O27   0.548142  0.912880  0.000000  -0.713422
    O   O28   0.451858  0.912880  0.000000  -0.688532
    C   C15   0.500000  0.000000  0.114915  0.979587
    O   O29   0.548142  0.000000  0.087120  -0.712324
    O   O30   0.451858  0.000000  0.087120  -0.692426
    C   C16   0.500000  0.114915  0.000000  0.969056
    O   O31   0.548142  0.087120  0.000000  -0.707706
    O   O32   0.451858  0.087120  0.000000  -0.686549
    Cu  Cu9   0.000000  0.439505  0.000000  1.044252
    Cu  Cu10  0.000000  0.560495  0.000000  1.057072
    C   C17   0.885085  0.500000  0.000000  0.985110
    O   O33   0.912880  0.548142  0.000000  -0.713461
    O   O34   0.912880  0.451858  0.000000  -0.688574
    C   C18   0.000000  0.500000  0.885085  0.979683
    O   O35   0.000000  0.548142  0.912880  -0.712368
    O   O36   0.000000  0.451858  0.912880  -0.692454
    C   C19   0.114915  0.500000  0.000000  0.969159
    O   O37   0.087120  0.548142  0.000000  -0.707741
    O   O38   0.087120  0.451858  0.000000  -0.686586
    C   C20   0.000000  0.500000  0.114915  0.973894
    O   O39   0.000000  0.548142  0.087120  -0.706205
    O   O40   0.000000  0.451858  0.087120  -0.684243
    Cu  Cu11  0.000000  0.000000  0.439505  1.053418
    Cu  Cu12  0.000000  0.000000  0.560495  1.053301
    C   C21   0.000000  0.885085  0.500000  0.972138
    O   O41   0.000000  0.912880  0.548142  -0.716715
    O   O42   0.000000  0.912880  0.451858  -0.684391
    C   C22   0.885085  0.000000  0.500000  0.972135
    O   O43   0.912880  0.000000  0.548142  -0.684408
    O   O44   0.912880  0.000000  0.451858  -0.716695
    C   C23   0.000000  0.114915  0.500000  0.959096
    O   O45   0.000000  0.087120  0.548142  -0.709918
    O   O46   0.000000  0.087120  0.451858  -0.683632
    C   C24   0.114915  0.000000  0.500000  0.959089
    O   O47   0.087120  0.000000  0.548142  -0.683645
    O   O48   0.087120  0.000000  0.451858  -0.709893
    N   N1    0.916791  0.419711  0.312661  -0.723470
    C   C25   0.956242  0.462122  0.279933  0.516037
    C   C26   0.999492  0.497858  0.315259  -0.367884
    C   C27   0.037337  0.536461  0.280283  -0.058140
    C   C28   0.041578  0.532258  0.216041  -0.108253
    C   C29   0.997176  0.499590  0.184674  -0.128237
    C   C30   0.953544  0.466756  0.216732  -0.259481
    C   C31   0.869331  0.383844  0.292422  0.806178
    O   O49   0.847163  0.388900  0.241510  -0.581925
    C   C32   0.844938  0.335268  0.338786  -0.410067
    C   C33   0.789080  0.299036  0.313422  0.186982
    C   C34   0.765243  0.256230  0.364095  -0.136123
    H   H1    0.931548  0.415491  0.356372  0.324412
    H   H2    0.073750  0.568066  0.299827  0.110372
    H   H3    0.077617  0.556233  0.193708  0.107097
    H   H4    0.916337  0.446071  0.189090  0.185535
    H   H5    0.832820  0.358773  0.382329  0.101671
    H   H6    0.881445  0.301740  0.344313  0.100265
    H   H7    0.749866  0.329157  0.300653  -0.021469
    H   H8    0.797960  0.272280  0.273011  -0.019830
    H   H9    0.729468  0.229468  0.346061  0.038960
    H   H10   0.799320  0.233597  0.389748  0.066686
    H   H11   0.742796  0.287351  0.396180  -0.004562
    N   N2    0.083209  0.419711  0.687339  -0.635372
    C   C35   0.043758  0.462122  0.720067  0.470663
    C   C36   0.000508  0.497858  0.684741  -0.379901
    C   C37   0.962663  0.536461  0.719717  -0.044706
    C   C38   0.958422  0.532258  0.783959  -0.116755
    C   C39   0.002824  0.499590  0.815326  -0.122486
    C   C40   0.046456  0.466756  0.783268  -0.224749
    C   C41   0.130669  0.383844  0.707578  0.627011
    O   O50   0.152837  0.388900  0.758490  -0.467063
    C   C42   0.155062  0.335268  0.661214  -0.319033
    C   C43   0.210920  0.299036  0.686578  0.213280
    C   C44   0.234757  0.256230  0.635905  -0.332083
    H   H12   0.068452  0.415491  0.643628  0.310878
    H   H13   0.926250  0.568066  0.700173  0.104718
    H   H14   0.922383  0.556233  0.806292  0.116995
    H   H15   0.083663  0.446071  0.810910  0.153702
    H   H16   0.167180  0.358773  0.617671  0.099556
    H   H17   0.118555  0.301740  0.655687  0.088852
    H   H18   0.250134  0.329157  0.699347  0.096429
    H   H19   0.202040  0.272280  0.726989  0.014447
    H   H20   0.270532  0.229468  0.653939  0.081360
    H   H21   0.200680  0.233597  0.610252  0.086670
    H   H22   0.257204  0.287351  0.603820  0.046494
    N   N3    0.312661  0.916791  0.419711  -0.728111
    C   C45   0.279933  0.956242  0.462122  0.545394
    C   C46   0.315259  0.999492  0.497858  -0.450684
    C   C47   0.280283  0.037337  0.536461  0.014851
    C   C48   0.216041  0.041578  0.532258  -0.170891
    C   C49   0.184674  0.997176  0.499590  -0.082486
    C   C50   0.216732  0.953544  0.466756  -0.279959
    C   C51   0.292422  0.869331  0.383844  0.788040
    O   O51   0.241510  0.847163  0.388900  -0.577664
    C   C52   0.338786  0.844938  0.335268  -0.396769
    C   C53   0.313422  0.789080  0.299036  0.226197
    C   C54   0.364095  0.765243  0.256230  -0.173001
    H   H23   0.356372  0.931548  0.415491  0.320640
    H   H24   0.299827  0.073750  0.568066  0.093344
    H   H25   0.193708  0.077617  0.556233  0.114187
    H   H26   0.189090  0.916337  0.446071  0.199434
    H   H27   0.382329  0.832820  0.358773  0.100800
    H   H28   0.344313  0.881445  0.301740  0.092854
    H   H29   0.300653  0.749866  0.329157  -0.027629
    H   H30   0.273011  0.797960  0.272280  -0.029630
    H   H31   0.346061  0.729468  0.229468  0.055865
    H   H32   0.389748  0.799320  0.233597  0.063386
    H   H33   0.396180  0.742796  0.287351  -0.007696
    N   N4    0.687339  0.083209  0.419711  -0.640041
    C   C55   0.720067  0.043758  0.462122  0.510669
    C   C56   0.684741  0.000508  0.497858  -0.432076
    C   C57   0.719717  0.962663  0.536461  0.026378
    C   C58   0.783959  0.958422  0.532258  -0.183305
    C   C59   0.815326  0.002824  0.499590  -0.086944
    C   C60   0.783268  0.046456  0.466756  -0.257886
    C   C61   0.707578  0.130669  0.383844  0.640512
    O   O52   0.758490  0.152837  0.388900  -0.476977
    C   C62   0.661214  0.155062  0.335268  -0.342643
    C   C63   0.686578  0.210920  0.299036  0.226940
    C   C64   0.635905  0.234757  0.256230  -0.334730
    H   H34   0.643628  0.068452  0.415491  0.309859
    H   H35   0.700173  0.926250  0.568066  0.096914
    H   H36   0.806292  0.922383  0.556233  0.125169
    H   H37   0.810910  0.083663  0.446071  0.174452
    H   H38   0.617671  0.167180  0.358773  0.106963
    H   H39   0.655687  0.118555  0.301740  0.093279
    H   H40   0.699347  0.250134  0.329157  0.089143
    H   H41   0.726989  0.202040  0.272280  0.009445
    H   H42   0.653939  0.270532  0.229468  0.080750
    H   H43   0.610252  0.200680  0.233597  0.092232
    H   H44   0.603820  0.257204  0.287351  0.048890
    N   N5    0.419711  0.312661  0.916791  -0.733482
    C   C65   0.462122  0.279933  0.956242  0.528301
    C   C66   0.497858  0.315259  0.999492  -0.403096
    C   C67   0.536461  0.280283  0.037337  -0.047376
    C   C68   0.532258  0.216041  0.041578  -0.115823
    C   C69   0.499590  0.184674  0.997176  -0.117418
    C   C70   0.466756  0.216732  0.953544  -0.259622
    C   C71   0.383844  0.292422  0.869331  0.802263
    O   O53   0.388900  0.241510  0.847163  -0.581963
    C   C72   0.335268  0.338786  0.844938  -0.408740
    C   C73   0.299036  0.313422  0.789080  0.226534
    C   C74   0.256230  0.364095  0.765243  -0.151544
    H   H45   0.415491  0.356372  0.931548  0.326236
    H   H46   0.568066  0.299827  0.073750  0.104654
    H   H47   0.556233  0.193708  0.077617  0.108304
    H   H48   0.446071  0.189090  0.916337  0.185684
    H   H49   0.358773  0.382329  0.832820  0.099711
    H   H50   0.301740  0.344313  0.881445  0.098208
    H   H51   0.329157  0.300653  0.749866  -0.032866
    H   H52   0.272280  0.273011  0.797960  -0.028385
    H   H53   0.229468  0.346061  0.729468  0.030153
    H   H54   0.233597  0.389748  0.799320  0.055828
    H   H55   0.287351  0.396180  0.742796  -0.012065
    N   N6    0.419711  0.687339  0.083209  -0.624786
    C   C75   0.462122  0.720067  0.043758  0.460205
    C   C76   0.497858  0.684741  0.000508  -0.355493
    C   C77   0.536461  0.719717  0.962663  -0.055349
    C   C78   0.532258  0.783959  0.958422  -0.103599
    C   C79   0.499590  0.815326  0.002824  -0.136648
    C   C80   0.466756  0.783268  0.046456  -0.224206
    C   C81   0.383844  0.707578  0.130669  0.633603
    O   O54   0.388900  0.758490  0.152837  -0.468863
    C   C82   0.335268  0.661214  0.155062  -0.339831
    C   C83   0.299036  0.686578  0.210920  0.194704
    C   C84   0.256230  0.635905  0.234757  -0.326782
    H   H56   0.415491  0.643628  0.068452  0.311271
    H   H57   0.568066  0.700173  0.926250  0.110590
    H   H58   0.556233  0.806292  0.922383  0.116440
    H   H59   0.446071  0.810910  0.083663  0.154493
    H   H60   0.358773  0.617671  0.167180  0.105869
    H   H61   0.301740  0.655687  0.118555  0.097829
    H   H62   0.329157  0.699347  0.250134  0.096841
    H   H63   0.272280  0.726989  0.202040  0.017945
    H   H64   0.229468  0.653939  0.270532  0.077532
    H   H65   0.233597  0.610252  0.200680  0.095871
    H   H66   0.287351  0.603820  0.257204  0.052830
    N   N7    0.419711  0.916791  0.687339  -0.723459
    C   C85   0.462122  0.956242  0.720067  0.516042
    C   C86   0.497858  0.999492  0.684741  -0.367888
    C   C87   0.536461  0.037337  0.719717  -0.058137
    C   C88   0.532258  0.041578  0.783959  -0.108281
    C   C89   0.499590  0.997176  0.815326  -0.128165
    C   C90   0.466756  0.953544  0.783268  -0.259517
    C   C91   0.383844  0.869331  0.707578  0.806168
    O   O55   0.388900  0.847163  0.758490  -0.581936
    C   C92   0.335268  0.844938  0.661214  -0.410070
    C   C93   0.299036  0.789080  0.686578  0.186991
    C   C94   0.256230  0.765243  0.635905  -0.136189
    H   H67   0.415491  0.931548  0.643628  0.324410
    H   H68   0.568066  0.073750  0.700173  0.110372
    H   H69   0.556233  0.077617  0.806292  0.107107
    H   H70   0.446071  0.916337  0.810910  0.185544
    H   H71   0.358773  0.832820  0.617671  0.101672
    H   H72   0.301740  0.881445  0.655687  0.100265
    H   H73   0.329157  0.749866  0.699347  -0.021471
    H   H74   0.272280  0.797960  0.726989  -0.019834
    H   H75   0.229468  0.729468  0.653939  0.038942
    H   H76   0.233597  0.799320  0.610252  0.066694
    H   H77   0.287351  0.742796  0.603820  -0.004557
    N   N8    0.419711  0.083209  0.312661  -0.635360
    C   C95   0.462122  0.043758  0.279933  0.470674
    C   C96   0.497858  0.000508  0.315259  -0.379919
    C   C97   0.536461  0.962663  0.280283  -0.044697
    C   C98   0.532258  0.958422  0.216041  -0.116781
    C   C99   0.499590  0.002824  0.184674  -0.122413
    C   C100  0.466756  0.046456  0.216732  -0.224773
    C   C101  0.383844  0.130669  0.292422  0.627021
    O   O56   0.388900  0.152837  0.241510  -0.467002
    C   C102  0.335268  0.155062  0.338786  -0.319034
    C   C103  0.299036  0.210920  0.313422  0.213328
    C   C104  0.256230  0.234757  0.364095  -0.332073
    H   H78   0.415491  0.068452  0.356372  0.310875
    H   H79   0.568066  0.926250  0.299827  0.104715
    H   H80   0.556233  0.922383  0.193708  0.117004
    H   H81   0.446071  0.083663  0.189090  0.153713
    H   H82   0.358773  0.167180  0.382329  0.099557
    H   H83   0.301740  0.118555  0.344313  0.088856
    H   H84   0.329157  0.250134  0.300653  0.096447
    H   H85   0.272280  0.202040  0.273011  0.014441
    H   H86   0.229468  0.270532  0.346061  0.081360
    H   H87   0.233597  0.200680  0.389748  0.086676
    H   H88   0.287351  0.257204  0.396180  0.046493
    N   N9    0.916791  0.312661  0.580289  -0.728108
    C   C105  0.956242  0.279933  0.537878  0.545392
    C   C106  0.999492  0.315259  0.502142  -0.450686
    C   C107  0.037337  0.280283  0.463539  0.014856
    C   C108  0.041578  0.216041  0.467742  -0.170895
    C   C109  0.997176  0.184674  0.500410  -0.082483
    C   C110  0.953544  0.216732  0.533244  -0.279960
    C   C111  0.869331  0.292422  0.616156  0.788036
    O   O57   0.847163  0.241510  0.611100  -0.577668
    C   C112  0.844938  0.338786  0.664732  -0.396773
    C   C113  0.789080  0.313422  0.700964  0.226199
    C   C114  0.765243  0.364095  0.743770  -0.173052
    H   H89   0.931548  0.356372  0.584509  0.320638
    H   H90   0.073750  0.299827  0.431934  0.093344
    H   H91   0.077617  0.193708  0.443767  0.114189
    H   H92   0.916337  0.189090  0.553929  0.199435
    H   H93   0.832820  0.382329  0.641227  0.100800
    H   H94   0.881445  0.344313  0.698260  0.092856
    H   H95   0.749866  0.300653  0.670843  -0.027630
    H   H96   0.797960  0.273011  0.727720  -0.029628
    H   H97   0.729468  0.346061  0.770532  0.055850
    H   H98   0.799320  0.389748  0.766403  0.063393
    H   H99   0.742796  0.396180  0.712649  -0.007695
    N   N10   0.083209  0.687339  0.580289  -0.640042
    C   C115  0.043758  0.720067  0.537878  0.510657
    C   C116  0.000508  0.684741  0.502142  -0.432056
    C   C117  0.962663  0.719717  0.463539  0.026366
    C   C118  0.958422  0.783959  0.467742  -0.183294
    C   C119  0.002824  0.815326  0.500410  -0.086953
    C   C120  0.046456  0.783268  0.533244  -0.257877
    C   C121  0.130669  0.707578  0.616156  0.640512
    O   O58   0.152837  0.758490  0.611100  -0.477019
    C   C122  0.155062  0.661214  0.664732  -0.342639
    C   C123  0.210920  0.686578  0.700964  0.226895
    C   C124  0.234757  0.635905  0.743770  -0.334736
    H   H100  0.068452  0.643628  0.584509  0.309859
    H   H101  0.926250  0.700173  0.431934  0.096917
    H   H102  0.922383  0.806292  0.443767  0.125168
    H   H103  0.083663  0.810910  0.553929  0.174448
    H   H104  0.167180  0.617671  0.641227  0.106961
    H   H105  0.118555  0.655687  0.698260  0.093276
    H   H106  0.250134  0.699347  0.670843  0.089131
    H   H107  0.202040  0.726989  0.727720  0.009451
    H   H108  0.270532  0.653939  0.770532  0.080752
    H   H109  0.200680  0.610252  0.766403  0.092232
    H   H110  0.257204  0.603820  0.712649  0.048891
    N   N11   0.312661  0.419711  0.083209  -0.733475
    C   C125  0.279933  0.462122  0.043758  0.528285
    C   C126  0.315259  0.497858  0.000508  -0.403071
    C   C127  0.280283  0.536461  0.962663  -0.047382
    C   C128  0.216041  0.532258  0.958422  -0.115798
    C   C129  0.184674  0.499590  0.002824  -0.117501
    C   C130  0.216732  0.466756  0.046456  -0.259582
    C   C131  0.292422  0.383844  0.130669  0.802256
    O   O59   0.241510  0.388900  0.152837  -0.581947
    C   C132  0.338786  0.335268  0.155062  -0.408722
    C   C133  0.313422  0.299036  0.210920  0.226522
    C   C134  0.364095  0.256230  0.234757  -0.151468
    H   H111  0.356372  0.415491  0.068452  0.326232
    H   H112  0.299827  0.568066  0.926250  0.104655
    H   H113  0.193708  0.556233  0.922383  0.108296
    H   H114  0.189090  0.446071  0.083663  0.185671
    H   H115  0.382329  0.358773  0.167180  0.099710
    H   H116  0.344313  0.301740  0.118555  0.098205
    H   H117  0.300653  0.329157  0.250134  -0.032861
    H   H118  0.273011  0.272280  0.202040  -0.028381
    H   H119  0.346061  0.229468  0.270532  0.030188
    H   H120  0.389748  0.233597  0.200680  0.055822
    H   H121  0.396180  0.287351  0.257204  -0.012063
    N   N12   0.687339  0.419711  0.916791  -0.624802
    C   C135  0.720067  0.462122  0.956242  0.460202
    C   C136  0.684741  0.497858  0.999492  -0.355499
    C   C137  0.719717  0.536461  0.037337  -0.055347
    C   C138  0.783959  0.532258  0.041578  -0.103568
    C   C139  0.815326  0.499590  0.997176  -0.136734
    C   C140  0.783268  0.466756  0.953544  -0.224174
    C   C141  0.707578  0.383844  0.869331  0.633602
    O   O60   0.758490  0.388900  0.847163  -0.468897
    C   C142  0.661214  0.335268  0.844938  -0.339832
    C   C143  0.686578  0.299036  0.789080  0.194680
    C   C144  0.635905  0.256230  0.765243  -0.326785
    H   H122  0.643628  0.415491  0.931548  0.311275
    H   H123  0.700173  0.568066  0.073750  0.110589
    H   H124  0.806292  0.556233  0.077617  0.116431
    H   H125  0.810910  0.446071  0.916337  0.154483
    H   H126  0.617671  0.358773  0.832820  0.105867
    H   H127  0.655687  0.301740  0.881445  0.097828
    H   H128  0.699347  0.329157  0.749866  0.096830
    H   H129  0.726989  0.272280  0.797960  0.017947
    H   H130  0.653939  0.229468  0.729468  0.077533
    H   H131  0.610252  0.233597  0.799320  0.095863
    H   H132  0.603820  0.287351  0.742796  0.052830
