# Generated by REPEAT Assigner based on pymatgen
data_DB13-acs-Syn019086
_audit_creation_date              2022-05-24
_audit_creation_method            REPEAT_Assigner
_cell_length_a                    20.536700
_cell_length_b                    20.536700
_cell_length_c                    16.768300
_cell_angle_alpha                 90.000000
_cell_angle_beta                  90.000000
_cell_angle_gamma                 120.000000
_cell_volume                      6124.645903
_symmetry_space_group_name_H-M    P1
_symmetry_Int_Tables_number       1
loop_
    _symmetry_equiv_pos_site_id
    _symmetry_equiv_pos_as_xyz
    1  x,y,z
loop_
    _atom_site_type_symbol
    _atom_site_label
    _atom_site_fract_x
    _atom_site_fract_y
    _atom_site_fract_z
    _atom_type_partial_charge
    Pd  Pd1  0.436351  0.716916  0.249313  0.478078
    Pd  Pd2  0.280554  0.716916  0.249313  0.477353
    Pd  Pd3  0.282117  0.564243  0.245998  0.482926
    O   O1   0.208296  0.550045  0.160417  -0.397713
    O   O2   0.205805  0.657205  0.164627  -0.349274
    C   C1   0.183896  0.591946  0.139924  0.528542
    O   O3   0.341740  0.550045  0.160417  -0.345671
    O   O4   0.451390  0.657205  0.164627  -0.394974
    C   C2   0.408040  0.591946  0.139924  0.522268
    O   O5   0.449759  0.657336  0.335334  -0.379474
    O   O6   0.340481  0.551192  0.332852  -0.403602
    C   C3   0.404480  0.592802  0.359981  0.564084
    O   O7   0.207567  0.657336  0.335334  -0.382232
    O   O8   0.210701  0.551192  0.332852  -0.390966
    C   C4   0.188311  0.592802  0.359981  0.556772
    O   O9   0.449450  0.790758  0.333643  -0.417240
    O   O10  0.341298  0.790758  0.333643  -0.418315
    C   C5   0.407294  0.814598  0.356071  0.626728
    O   O11  0.449818  0.791596  0.165573  -0.360277
    O   O12  0.341768  0.791596  0.165573  -0.401391
    C   C6   0.407958  0.815927  0.144120  0.524110
    Pd  Pd4  0.563649  0.283084  0.749313  0.478064
    Pd  Pd5  0.719446  0.283084  0.749313  0.477363
    Pd  Pd6  0.717883  0.435757  0.745998  0.482930
    O   O13  0.791704  0.449955  0.660417  -0.397722
    O   O14  0.794195  0.342795  0.664627  -0.349290
    C   C7   0.816104  0.408054  0.639924  0.528564
    O   O15  0.658260  0.449955  0.660417  -0.345672
    O   O16  0.548610  0.342795  0.664627  -0.394971
    C   C8   0.591960  0.408054  0.639924  0.522263
    O   O17  0.550241  0.342664  0.835334  -0.379461
    O   O18  0.659519  0.448808  0.832852  -0.403598
    C   C9   0.595520  0.407198  0.859981  0.564068
    O   O19  0.792433  0.342664  0.835334  -0.382224
    O   O20  0.789299  0.448808  0.832852  -0.390966
    C   C10  0.811689  0.407198  0.859981  0.556754
    O   O21  0.550550  0.209242  0.833643  -0.417243
    O   O22  0.658702  0.209242  0.833643  -0.418318
    C   C11  0.592706  0.185402  0.856071  0.626742
    O   O23  0.550182  0.208404  0.665573  -0.360263
    O   O24  0.658232  0.208404  0.665573  -0.401386
    C   C12  0.592042  0.184073  0.644120  0.524090
    C   C13  0.933514  0.647587  0.168623  -0.294859
    C   C14  0.912060  0.594051  0.097354  0.322021
    O   O25  0.945820  0.545077  0.103243  -0.367072
    C   C15  0.948481  0.509490  0.036964  0.443715
    C   C16  0.888252  0.480817  0.982732  -0.475826
    C   C17  0.884753  0.438400  0.915335  0.114001
    C   C18  0.942557  0.426409  0.904049  -0.252306
    C   C19  0.002616  0.451555  0.964535  0.056819
    Cl  Cl1  0.065488  0.418219  0.954151  -0.056297
    C   C20  0.009678  0.499151  0.024451  0.092087
    O   O26  0.062800  0.517824  0.084806  -0.272110
    C   C21  0.130786  0.582074  0.067866  -0.024645
    H   H1   0.901601  0.676657  0.170436  0.082903
    H   H2   0.921898  0.614100  0.221660  0.088750
    H   H3   0.992056  0.691149  0.161033  0.092236
    H   H4   0.850033  0.554176  0.098319  0.003376
    H   H5   0.930170  0.627133  0.043226  -0.017040
    H   H6   0.837213  0.486069  0.994719  0.153553
    H   H7   0.937937  0.386139  0.858512  0.129260
    H   H8   0.152555  0.581539  0.010673  0.068866
    H   H9   0.124021  0.631813  0.063668  0.076970
    C   C22  0.352413  0.285927  0.168623  -0.298797
    C   C23  0.405949  0.318010  0.097354  0.318438
    O   O27  0.454923  0.400743  0.103243  -0.361228
    C   C24  0.490510  0.438991  0.036964  0.429572
    C   C25  0.519183  0.407435  0.982732  -0.468515
    C   C26  0.561600  0.446354  0.915335  0.108438
    C   C27  0.573591  0.516148  0.904049  -0.248131
    C   C28  0.548445  0.551061  0.964535  0.044546
    Cl  Cl2  0.581781  0.647269  0.954151  -0.055676
    C   C29  0.500849  0.510526  0.024451  0.111474
    O   O28  0.482176  0.544976  0.084806  -0.283655
    C   C30  0.417926  0.548712  0.067866  -0.008725
    H   H10  0.323343  0.224944  0.170436  0.084114
    H   H11  0.385900  0.307799  0.221660  0.089218
    H   H12  0.308851  0.300907  0.161033  0.093148
    H   H13  0.445824  0.295858  0.098319  0.006403
    H   H14  0.372867  0.303036  0.043226  -0.014653
    H   H15  0.513931  0.351144  0.994719  0.151771
    H   H16  0.613861  0.551798  0.858512  0.130761
    H   H17  0.418461  0.571016  0.010673  0.064062
    H   H18  0.368187  0.492207  0.063668  0.075375
    C   C31  0.714073  0.066486  0.168623  -0.289924
    C   C32  0.681990  0.087940  0.097354  0.318679
    O   O29  0.599257  0.054180  0.103243  -0.363328
    C   C33  0.561009  0.051519  0.036964  0.422994
    C   C34  0.592565  0.111748  0.982732  -0.436406
    C   C35  0.553646  0.115247  0.915335  0.065997
    C   C36  0.483852  0.057443  0.904049  -0.248716
    C   C37  0.448939  0.997384  0.964535  0.057125
    Cl  Cl3  0.352731  0.934512  0.954151  -0.057403
    C   C38  0.489474  0.990322  0.024451  0.105033
    O   O30  0.455024  0.937200  0.084806  -0.276804
    C   C39  0.451288  0.869214  0.067866  -0.026747
    H   H19  0.775056  0.098399  0.170436  0.081939
    H   H20  0.692201  0.078102  0.221660  0.086169
    H   H21  0.699093  0.007944  0.161033  0.091600
    H   H22  0.704142  0.149967  0.098319  0.004673
    H   H23  0.696964  0.069830  0.043226  -0.016810
    H   H24  0.648856  0.162787  0.994719  0.146377
    H   H25  0.448202  0.062063  0.858512  0.131454
    H   H26  0.428984  0.847445  0.010673  0.071235
    H   H27  0.507793  0.875979  0.063668  0.080787
    C   C40  0.066486  0.352413  0.668623  -0.294870
    C   C41  0.087940  0.405949  0.597354  0.321999
    O   O31  0.054180  0.454923  0.603243  -0.367062
    C   C42  0.051519  0.490510  0.536964  0.443722
    C   C43  0.111748  0.519183  0.482732  -0.475807
    C   C44  0.115247  0.561600  0.415335  0.113993
    C   C45  0.057443  0.573591  0.404049  -0.252322
    C   C46  0.997384  0.548445  0.464535  0.056841
    Cl  Cl4  0.934512  0.581781  0.454151  -0.056301
    C   C47  0.990322  0.500849  0.524451  0.092064
    O   O32  0.937200  0.482176  0.584806  -0.272106
    C   C48  0.869214  0.417926  0.567866  -0.024660
    H   H28  0.098399  0.323343  0.670436  0.082904
    H   H29  0.078102  0.385900  0.721660  0.088754
    H   H30  0.007944  0.308851  0.661033  0.092244
    H   H31  0.149967  0.445824  0.598319  0.003390
    H   H32  0.069830  0.372867  0.543226  -0.017035
    H   H33  0.162787  0.513931  0.494719  0.153530
    H   H34  0.062063  0.613861  0.358512  0.129266
    H   H35  0.847445  0.418461  0.510673  0.068871
    H   H36  0.875979  0.368187  0.563668  0.076978
    C   C49  0.647587  0.714073  0.668623  -0.298786
    C   C50  0.594051  0.681990  0.597354  0.318415
    O   O33  0.545077  0.599257  0.603243  -0.361219
    C   C51  0.509490  0.561009  0.536964  0.429569
    C   C52  0.480817  0.592565  0.482732  -0.468505
    C   C53  0.438400  0.553646  0.415335  0.108449
    C   C54  0.426409  0.483852  0.404049  -0.248154
    C   C55  0.451555  0.448939  0.464535  0.044564
    Cl  Cl5  0.418219  0.352731  0.454151  -0.055677
    C   C56  0.499151  0.489474  0.524451  0.111466
    O   O34  0.517824  0.455024  0.584806  -0.283664
    C   C57  0.582074  0.451288  0.567866  -0.008694
    H   H37  0.676657  0.775056  0.670436  0.084110
    H   H38  0.614100  0.692201  0.721660  0.089215
    H   H39  0.691149  0.699093  0.661033  0.093146
    H   H40  0.554176  0.704142  0.598319  0.006415
    H   H41  0.627133  0.696964  0.543226  -0.014647
    H   H42  0.486069  0.648856  0.494719  0.151755
    H   H43  0.386139  0.448202  0.358512  0.130764
    H   H44  0.581539  0.428984  0.510673  0.064053
    H   H45  0.631813  0.507793  0.563668  0.075367
    C   C58  0.285927  0.933514  0.668623  -0.289887
    C   C59  0.318010  0.912060  0.597354  0.318654
    O   O35  0.400743  0.945820  0.603243  -0.363347
    C   C60  0.438991  0.948481  0.536964  0.423038
    C   C61  0.407435  0.888252  0.482732  -0.436451
    C   C62  0.446354  0.884753  0.415335  0.066013
    C   C63  0.516148  0.942557  0.404049  -0.248715
    C   C64  0.551061  0.002616  0.464535  0.057117
    Cl  Cl6  0.647269  0.065488  0.454151  -0.057396
    C   C65  0.510526  0.009678  0.524451  0.105019
    O   O36  0.544976  0.062800  0.584806  -0.276797
    C   C66  0.548712  0.130786  0.567866  -0.026744
    H   H46  0.224944  0.901601  0.670436  0.081933
    H   H47  0.307799  0.921898  0.721660  0.086173
    H   H48  0.300907  0.992056  0.661033  0.091587
    H   H49  0.295858  0.850033  0.598319  0.004671
    H   H50  0.303036  0.930170  0.543226  -0.016804
    H   H51  0.351144  0.837213  0.494719  0.146404
    H   H52  0.551798  0.937937  0.358512  0.131455
    H   H53  0.571016  0.152555  0.510673  0.071233
    H   H54  0.492207  0.124021  0.563668  0.080789
