# Generated by REPEAT Assigner based on pymatgen
data_DB13-nbo-Syn023368
_audit_creation_date              2022-05-24
_audit_creation_method            REPEAT_Assigner
_cell_length_a                    22.460600
_cell_length_b                    22.460600
_cell_length_c                    22.460600
_cell_angle_alpha                 90.000000
_cell_angle_beta                  90.000000
_cell_angle_gamma                 90.000000
_cell_volume                      11330.890973
_symmetry_space_group_name_H-M    P1
_symmetry_Int_Tables_number       1
loop_
    _symmetry_equiv_pos_site_id
    _symmetry_equiv_pos_as_xyz
    1  x,y,z
loop_
    _atom_site_type_symbol
    _atom_site_label
    _atom_site_fract_x
    _atom_site_fract_y
    _atom_site_fract_z
    _atom_type_partial_charge
    C   C1    0.945872  0.499117  0.287714  -0.033590
    C   C2    0.994949  0.506554  0.320846  -0.311633
    C   C3    0.054357  0.520313  0.282328  0.513773
    C   C4    0.057617  0.521680  0.212307  -0.039334
    C   C5    0.006163  0.508788  0.181479  -0.254403
    C   C6    0.951425  0.498294  0.217902  0.432607
    C   C7    0.000000  0.612284  0.500000  0.786886
    C   C8    0.119495  0.493936  0.684818  0.036826
    C   C9    0.160322  0.451028  0.702176  0.266323
    C   C10   0.215383  0.444402  0.673544  -0.195678
    C   C11   0.232303  0.485025  0.628352  -0.249844
    C   C12   0.194935  0.531077  0.615088  0.156097
    C   C13   0.138320  0.533496  0.639516  -0.163348
    C   C14   0.169497  0.382424  0.782973  0.207864
    C   C15   0.179693  0.320325  0.751952  -0.233572
    C   C16   0.054128  0.499117  0.712286  -0.046944
    C   C17   0.005051  0.506554  0.679154  -0.277685
    C   C18   0.945643  0.520313  0.717672  0.534508
    C   C19   0.942383  0.521680  0.787693  -0.071246
    C   C20   0.993837  0.508788  0.818521  -0.241086
    C   C21   0.048575  0.498294  0.782098  0.427413
    C   C22   0.315182  0.880505  0.493936  0.052464
    C   C23   0.297824  0.839678  0.451028  0.284234
    C   C24   0.326456  0.784617  0.444402  -0.204662
    C   C25   0.371648  0.767697  0.485025  -0.247082
    C   C26   0.384912  0.805065  0.531077  0.163607
    C   C27   0.360484  0.861680  0.533496  -0.152013
    C   C28   0.217027  0.830503  0.382424  0.287724
    C   C29   0.248048  0.820307  0.320325  -0.315167
    C   C30   0.287714  0.945872  0.499117  -0.128271
    C   C31   0.320846  0.994949  0.506554  -0.225616
    C   C32   0.282328  0.054357  0.520313  0.504387
    C   C33   0.387716  0.000000  0.500000  0.776130
    C   C34   0.212307  0.057617  0.521680  -0.019816
    C   C35   0.181479  0.006163  0.508788  -0.310661
    C   C36   0.217902  0.951425  0.498294  0.504417
    C   C37   0.684818  0.119495  0.493936  0.054698
    C   C38   0.702176  0.160322  0.451028  0.313275
    C   C39   0.673544  0.215383  0.444402  -0.278344
    C   C40   0.628352  0.232303  0.485025  -0.237575
    C   C41   0.615088  0.194935  0.531077  0.380442
    C   C42   0.639516  0.138320  0.533496  -0.318660
    C   C43   0.782973  0.169497  0.382424  0.314479
    C   C44   0.751952  0.179693  0.320325  -0.299678
    C   C45   0.712286  0.054128  0.499117  -0.099169
    C   C46   0.679154  0.005051  0.506554  -0.283066
    C   C47   0.717672  0.945643  0.520313  0.510567
    C   C48   0.787693  0.942383  0.521680  -0.033613
    C   C49   0.818521  0.993837  0.508788  -0.304604
    C   C50   0.782098  0.048575  0.498294  0.518118
    C   C51   0.500000  0.000000  0.387716  0.777292
    C   C52   0.493936  0.315182  0.880505  0.037366
    C   C53   0.451028  0.297824  0.839678  0.246914
    C   C54   0.444402  0.326456  0.784617  -0.152733
    C   C55   0.485025  0.371648  0.767697  -0.266437
    C   C56   0.531077  0.384912  0.805065  0.154438
    C   C57   0.533496  0.360484  0.861680  -0.159490
    C   C58   0.000000  0.500000  0.387716  0.773829
    C   C59   0.382424  0.217027  0.830503  0.113424
    C   C60   0.320325  0.248048  0.820307  -0.172108
    C   C61   0.499117  0.287714  0.945872  -0.045101
    C   C62   0.506554  0.320846  0.994949  -0.283564
    C   C63   0.520313  0.282328  0.054357  0.540393
    C   C64   0.521680  0.212307  0.057617  -0.063068
    C   C65   0.508788  0.181479  0.006163  -0.241141
    C   C66   0.498294  0.217902  0.951425  0.412212
    C   C67   0.493936  0.684818  0.119495  0.037292
    C   C68   0.612284  0.000000  0.500000  0.786893
    C   C69   0.451028  0.702176  0.160322  0.301063
    C   C70   0.444402  0.673544  0.215383  -0.293804
    C   C71   0.485025  0.628352  0.232303  -0.214413
    C   C72   0.531077  0.615088  0.194935  0.351256
    C   C73   0.533496  0.639516  0.138320  -0.305220
    C   C74   0.382424  0.782973  0.169497  0.218599
    C   C75   0.320325  0.751952  0.179693  -0.212750
    C   C76   0.499117  0.712286  0.054128  -0.025638
    C   C77   0.506554  0.679154  0.005051  -0.333990
    C   C78   0.520313  0.717672  0.945643  0.529972
    C   C79   0.521680  0.787693  0.942383  -0.053292
    C   C80   0.508788  0.818521  0.993837  -0.252888
    C   C81   0.498294  0.782098  0.048575  0.443615
    C   C82   0.493936  0.880505  0.684818  0.042003
    C   C83   0.451028  0.839678  0.702176  0.282794
    C   C84   0.444402  0.784617  0.673544  -0.265002
    C   C85   0.485025  0.767697  0.628352  -0.187493
    C   C86   0.500000  0.000000  0.612284  0.773838
    C   C87   0.531077  0.805065  0.615088  0.325630
    C   C88   0.533496  0.861680  0.639516  -0.290998
    C   C89   0.382424  0.830503  0.782973  0.132763
    C   C90   0.320325  0.820307  0.751952  -0.170108
    C   C91   0.499117  0.945872  0.712286  -0.033591
    C   C92   0.506554  0.994949  0.679154  -0.311639
    C   C93   0.520313  0.054357  0.717672  0.513778
    C   C94   0.521680  0.057617  0.787693  -0.039334
    C   C95   0.508788  0.006163  0.818521  -0.254408
    C   C96   0.498294  0.951425  0.782098  0.432611
    C   C97   0.493936  0.119495  0.315182  0.036820
    C   C98   0.451028  0.160322  0.297824  0.266327
    C   C99   0.444402  0.215383  0.326456  -0.195683
    C   C100  0.485025  0.232303  0.371648  -0.249840
    C   C101  0.531077  0.194935  0.384912  0.156093
    C   C102  0.533496  0.138320  0.360484  -0.163341
    C   C103  0.382424  0.169497  0.217027  0.207859
    C   C104  0.320325  0.179693  0.248048  -0.233567
    C   C105  0.499117  0.054128  0.287714  -0.046943
    C   C106  0.506554  0.005051  0.320846  -0.277679
    C   C107  0.520313  0.945643  0.282328  0.534503
    C   C108  0.521680  0.942383  0.212307  -0.071245
    C   C109  0.508788  0.993837  0.181479  -0.241081
    C   C110  0.498294  0.048575  0.217902  0.427409
    C   C111  0.500000  0.387716  0.000000  0.784673
    C   C112  0.880505  0.315182  0.506064  0.052467
    C   C113  0.839678  0.297824  0.548972  0.284229
    C   C114  0.784617  0.326456  0.555598  -0.204655
    C   C115  0.767697  0.371648  0.514975  -0.247085
    C   C116  0.805065  0.384912  0.468923  0.163608
    C   C117  0.861680  0.360484  0.466504  -0.152015
    C   C118  0.830503  0.217027  0.617576  0.287727
    C   C119  0.820307  0.248048  0.679675  -0.315170
    C   C120  0.945872  0.287714  0.500883  -0.128272
    C   C121  0.994949  0.320846  0.493446  -0.225616
    C   C122  0.054357  0.282328  0.479687  0.504390
    C   C123  0.057617  0.212307  0.478320  -0.019815
    C   C124  0.006163  0.181479  0.491212  -0.310660
    C   C125  0.951425  0.217902  0.501706  0.504414
    C   C126  0.119495  0.684818  0.506064  0.054707
    C   C127  0.160322  0.702176  0.548972  0.313268
    C   C128  0.215383  0.673544  0.555598  -0.278337
    C   C129  0.387716  0.500000  0.000000  0.784678
    C   C130  0.232303  0.628352  0.514975  -0.237582
    C   C131  0.194935  0.615088  0.468923  0.380451
    C   C132  0.138320  0.639516  0.466504  -0.318672
    C   C133  0.169497  0.782973  0.617576  0.314482
    C   C134  0.179693  0.751952  0.679675  -0.299681
    C   C135  0.054128  0.712286  0.500883  -0.099173
    C   C136  0.005051  0.679154  0.493446  -0.283063
    C   C137  0.945643  0.717672  0.479687  0.510569
    C   C138  0.942383  0.787693  0.478320  -0.033613
    C   C139  0.993837  0.818521  0.491212  -0.304603
    C   C140  0.048575  0.782098  0.501706  0.518117
    C   C141  0.315182  0.493936  0.119495  0.037361
    C   C142  0.297824  0.451028  0.160322  0.246919
    C   C143  0.326456  0.444402  0.215383  -0.152738
    C   C144  0.371648  0.485025  0.232303  -0.266430
    C   C145  0.384912  0.531077  0.194935  0.154433
    C   C146  0.360484  0.533496  0.138320  -0.159486
    C   C147  0.500000  0.612284  0.000000  0.803547
    C   C148  0.217027  0.382424  0.169497  0.113425
    C   C149  0.248048  0.320325  0.179693  -0.172111
    C   C150  0.287714  0.499117  0.054128  -0.045098
    C   C151  0.320846  0.506554  0.005051  -0.283569
    C   C152  0.282328  0.520313  0.945643  0.540399
    C   C153  0.212307  0.521680  0.942383  -0.063069
    C   C154  0.181479  0.508788  0.993837  -0.241140
    C   C155  0.217902  0.498294  0.048575  0.412209
    C   C156  0.684818  0.493936  0.880505  0.037296
    C   C157  0.702176  0.451028  0.839678  0.301059
    C   C158  0.673544  0.444402  0.784617  -0.293798
    C   C159  0.628352  0.485025  0.767697  -0.214423
    C   C160  0.615088  0.531077  0.805065  0.351263
    C   C161  0.639516  0.533496  0.861680  -0.305224
    C   C162  0.782973  0.382424  0.830503  0.218599
    C   C163  0.612284  0.500000  0.000000  0.803545
    C   C164  0.751952  0.320325  0.820307  -0.212749
    C   C165  0.712286  0.499117  0.945872  -0.025639
    C   C166  0.679154  0.506554  0.994949  -0.333988
    C   C167  0.717672  0.520313  0.054357  0.529969
    C   C168  0.787693  0.521680  0.057617  -0.053292
    C   C169  0.818521  0.508788  0.006163  -0.252888
    C   C170  0.782098  0.498294  0.951425  0.443617
    C   C171  0.500000  0.000000  0.887716  0.880682
    C   C172  0.500000  0.887716  0.000000  0.881616
    C   C173  0.000000  0.387716  0.500000  0.776125
    C   C174  0.500000  0.000000  0.112284  0.887866
    C   C175  0.500000  0.112284  0.000000  0.884422
    C   C176  0.887716  0.500000  0.000000  0.881617
    C   C177  0.000000  0.500000  0.887716  0.887867
    C   C178  0.112284  0.500000  0.000000  0.884421
    C   C179  0.000000  0.500000  0.112284  0.880681
    C   C180  0.000000  0.887716  0.500000  0.973704
    C   C181  0.887716  0.000000  0.500000  0.973711
    C   C182  0.000000  0.112284  0.500000  0.984300
    C   C183  0.000000  0.500000  0.612284  0.777302
    C   C184  0.112284  0.000000  0.500000  0.984306
    C   C185  0.880505  0.493936  0.315182  0.041997
    C   C186  0.839678  0.451028  0.297824  0.282799
    C   C187  0.784617  0.444402  0.326456  -0.265008
    C   C188  0.767697  0.485025  0.371648  -0.187488
    C   C189  0.805065  0.531077  0.384912  0.325624
    C   C190  0.861680  0.533496  0.360484  -0.290991
    C   C191  0.830503  0.382424  0.217027  0.132759
    C   C192  0.820307  0.320325  0.248048  -0.170104
    Cl  Cl1   0.126660  0.543104  0.183254  -0.004197
    Cl  Cl2   0.873340  0.543104  0.816746  0.019050
    Cl  Cl3   0.183254  0.126660  0.543104  0.031207
    Cl  Cl4   0.816746  0.873340  0.543104  0.049487
    Cl  Cl5   0.543104  0.183254  0.126660  0.008116
    Cl  Cl6   0.543104  0.816746  0.873340  0.010190
    Cl  Cl7   0.543104  0.126660  0.816746  -0.004196
    Cl  Cl8   0.543104  0.873340  0.183254  0.019050
    Cl  Cl9   0.126660  0.183254  0.456896  0.031208
    Cl  Cl10  0.873340  0.816746  0.456896  0.049487
    Cl  Cl11  0.183254  0.543104  0.873340  0.008116
    Cl  Cl12  0.816746  0.543104  0.126660  0.010190
    Cu  Cu1   0.940890  0.500000  0.500000  0.892801
    Cu  Cu2   0.059110  0.500000  0.500000  0.886517
    Cu  Cu3   0.500000  0.940890  0.500000  0.892804
    Cu  Cu4   0.500000  0.059110  0.500000  0.886518
    Cu  Cu5   0.500000  0.500000  0.940890  0.893559
    Cu  Cu6   0.500000  0.500000  0.059110  0.893551
    Cu  Cu7   0.440890  0.000000  0.000000  1.081812
    Cu  Cu8   0.559110  0.000000  0.000000  0.972049
    Cu  Cu9   0.000000  0.440890  0.000000  1.081812
    Cu  Cu10  0.000000  0.559110  0.000000  0.972049
    Cu  Cu11  0.000000  0.000000  0.440890  1.058806
    Cu  Cu12  0.000000  0.000000  0.559110  1.058802
    F   F1    0.218379  0.579228  0.586927  -0.030016
    F   F2    0.413073  0.781621  0.579228  -0.035587
    F   F3    0.586927  0.218379  0.579228  -0.250340
    F   F4    0.579228  0.413073  0.781621  -0.017438
    F   F5    0.579228  0.586927  0.218379  -0.231290
    F   F6    0.579228  0.781621  0.586927  -0.217190
    F   F7    0.579228  0.218379  0.413073  -0.030015
    F   F8    0.781621  0.413073  0.420772  -0.035587
    F   F9    0.218379  0.586927  0.420772  -0.250342
    F   F10   0.413073  0.579228  0.218379  -0.017437
    F   F11   0.586927  0.579228  0.781621  -0.231292
    F   F12   0.781621  0.579228  0.413073  -0.217189
    H   H1    0.805196  0.326162  0.294134  0.038389
    H   H2    0.863658  0.296200  0.249605  0.064717
    H   H3    0.244664  0.407167  0.682701  0.163863
    H   H4    0.277017  0.480493  0.608323  0.164774
    H   H5    0.110431  0.570802  0.624039  0.136755
    H   H6    0.145411  0.369738  0.822149  0.047519
    H   H7    0.211516  0.407206  0.792066  -0.002485
    H   H8    0.209565  0.290435  0.780837  0.038944
    H   H9    0.194804  0.326162  0.705866  0.059726
    H   H10   0.136342  0.296200  0.750395  0.078512
    H   H11   0.317299  0.755336  0.407167  0.163668
    H   H12   0.391677  0.722983  0.480493  0.163384
    H   H13   0.375961  0.889569  0.570802  0.128295
    H   H14   0.177851  0.854589  0.369738  0.055817
    H   H15   0.207934  0.788484  0.407206  -0.030456
    H   H16   0.219163  0.790435  0.290435  0.064734
    H   H17   0.294134  0.805196  0.326162  0.075465
    H   H18   0.249605  0.863658  0.296200  0.087685
    H   H19   0.682701  0.244664  0.407167  0.160722
    H   H20   0.608323  0.277017  0.480493  0.151685
    H   H21   0.624039  0.110431  0.570802  0.192341
    H   H22   0.822149  0.145411  0.369738  0.040798
    H   H23   0.792066  0.211516  0.407206  -0.040470
    H   H24   0.780837  0.209565  0.290435  0.052106
    H   H25   0.705866  0.194804  0.326162  0.061449
    H   H26   0.750395  0.136342  0.296200  0.082493
    H   H27   0.407167  0.317299  0.755336  0.146839
    H   H28   0.480493  0.391677  0.722983  0.168276
    H   H29   0.570802  0.375961  0.889569  0.141086
    H   H30   0.369738  0.177851  0.854589  0.070803
    H   H31   0.407206  0.207934  0.788484  0.030176
    H   H32   0.290435  0.219163  0.790435  0.038592
    H   H33   0.326162  0.294134  0.805196  0.043979
    H   H34   0.296200  0.249605  0.863658  0.074376
    H   H35   0.407167  0.682701  0.244664  0.173040
    H   H36   0.480493  0.608323  0.277017  0.153453
    H   H37   0.570802  0.624039  0.110431  0.197289
    H   H38   0.369738  0.822149  0.145411  0.038038
    H   H39   0.407206  0.792066  0.211516  -0.001299
    H   H40   0.290435  0.780837  0.209565  0.048661
    H   H41   0.326162  0.705866  0.194804  0.038268
    H   H42   0.296200  0.750395  0.136342  0.070825
    H   H43   0.407167  0.755336  0.682701  0.155799
    H   H44   0.480493  0.722983  0.608323  0.147915
    H   H45   0.570802  0.889569  0.624039  0.182394
    H   H46   0.369738  0.854589  0.822149  0.061986
    H   H47   0.407206  0.788484  0.792066  0.027209
    H   H48   0.290435  0.790435  0.780837  0.045790
    H   H49   0.326162  0.805196  0.705866  0.038389
    H   H50   0.296200  0.863658  0.750395  0.064718
    H   H51   0.407167  0.244664  0.317299  0.163864
    H   H52   0.480493  0.277017  0.391677  0.164773
    H   H53   0.570802  0.110431  0.375961  0.136753
    H   H54   0.369738  0.145411  0.177851  0.047520
    H   H55   0.407206  0.211516  0.207934  -0.002484
    H   H56   0.290435  0.209565  0.219163  0.038942
    H   H57   0.326162  0.194804  0.294134  0.059724
    H   H58   0.296200  0.136342  0.249605  0.078511
    H   H59   0.755336  0.317299  0.592833  0.163666
    H   H60   0.722983  0.391677  0.519507  0.163384
    H   H61   0.889569  0.375961  0.429198  0.128296
    H   H62   0.854589  0.177851  0.630262  0.055817
    H   H63   0.788484  0.207934  0.592794  -0.030456
    H   H64   0.790435  0.219163  0.709565  0.064734
    H   H65   0.805196  0.294134  0.673838  0.075466
    H   H66   0.863658  0.249605  0.703800  0.087686
    H   H67   0.244664  0.682701  0.592833  0.160720
    H   H68   0.277017  0.608323  0.519507  0.151687
    H   H69   0.110431  0.624039  0.429198  0.192345
    H   H70   0.145411  0.822149  0.630262  0.040797
    H   H71   0.211516  0.792066  0.592794  -0.040469
    H   H72   0.209565  0.780837  0.709565  0.052106
    H   H73   0.194804  0.705866  0.673838  0.061450
    H   H74   0.136342  0.750395  0.703800  0.082494
    H   H75   0.317299  0.407167  0.244664  0.146839
    H   H76   0.391677  0.480493  0.277017  0.168274
    H   H77   0.375961  0.570802  0.110431  0.141085
    H   H78   0.177851  0.369738  0.145411  0.070804
    H   H79   0.207934  0.407206  0.211516  0.030175
    H   H80   0.219163  0.290435  0.209565  0.038593
    H   H81   0.294134  0.326162  0.194804  0.043980
    H   H82   0.249605  0.296200  0.136342  0.074377
    H   H83   0.682701  0.407167  0.755336  0.173039
    H   H84   0.608323  0.480493  0.722983  0.153455
    H   H85   0.624039  0.570802  0.889569  0.197290
    H   H86   0.822149  0.369738  0.854589  0.038038
    H   H87   0.792066  0.407206  0.788484  -0.001299
    H   H88   0.780837  0.290435  0.790435  0.048661
    H   H89   0.705866  0.326162  0.805196  0.038267
    H   H90   0.750395  0.296200  0.863658  0.070825
    H   H91   0.755336  0.407167  0.317299  0.155800
    H   H92   0.722983  0.480493  0.391677  0.147915
    H   H93   0.889569  0.570802  0.375961  0.182391
    H   H94   0.854589  0.369738  0.177851  0.061988
    H   H95   0.788484  0.407206  0.207934  0.027210
    H   H96   0.790435  0.290435  0.219163  0.045790
    O   O1    0.952960  0.500000  0.585125  -0.582693
    O   O2    0.100686  0.531968  0.308214  -0.401379
    O   O3    0.906249  0.494333  0.190123  -0.273222
    O   O4    0.134460  0.415237  0.742977  -0.310146
    O   O5    0.047040  0.585125  0.500000  -0.510455
    O   O6    0.952960  0.585125  0.500000  -0.547478
    O   O7    0.899314  0.531968  0.691786  -0.398743
    O   O8    0.093751  0.494333  0.809877  -0.290380
    O   O9    0.257023  0.865540  0.415237  -0.309979
    O   O10   0.308214  0.100686  0.531968  -0.415723
    O   O11   0.190123  0.906249  0.494333  -0.371539
    O   O12   0.414875  0.047040  0.500000  -0.576487
    O   O13   0.742977  0.134460  0.415237  -0.331873
    O   O14   0.414875  0.952960  0.500000  -0.535674
    O   O15   0.691786  0.899314  0.531968  -0.401305
    O   O16   0.809877  0.093751  0.494333  -0.384109
    O   O17   0.415237  0.257023  0.865540  -0.296549
    O   O18   0.500000  0.047040  0.414875  -0.519616
    O   O19   0.500000  0.952960  0.414875  -0.582688
    O   O20   0.531968  0.308214  0.100686  -0.413865
    O   O21   0.494333  0.190123  0.906249  -0.267811
    O   O22   0.415237  0.742977  0.134460  -0.336154
    O   O23   0.585125  0.047040  0.500000  -0.510459
    O   O24   0.585125  0.952960  0.500000  -0.547482
    O   O25   0.531968  0.691786  0.899314  -0.399741
    O   O26   0.494333  0.809877  0.093751  -0.289875
    O   O27   0.415237  0.865540  0.742977  -0.319427
    O   O28   0.500000  0.047040  0.585125  -0.555511
    O   O29   0.531968  0.100686  0.691786  -0.401380
    O   O30   0.500000  0.952960  0.585125  -0.499121
    O   O31   0.494333  0.906249  0.809877  -0.273224
    O   O32   0.415237  0.134460  0.257023  -0.310145
    O   O33   0.531968  0.899314  0.308214  -0.398742
    O   O34   0.494333  0.093751  0.190123  -0.290379
    O   O35   0.047040  0.500000  0.414875  -0.555508
    O   O36   0.865540  0.257023  0.584763  -0.309978
    O   O37   0.500000  0.414875  0.047040  -0.581666
    O   O38   0.500000  0.414875  0.952960  -0.532037
    O   O39   0.100686  0.308214  0.468032  -0.415725
    O   O40   0.906249  0.190123  0.505667  -0.371537
    O   O41   0.134460  0.742977  0.584763  -0.331873
    O   O42   0.414875  0.500000  0.047040  -0.532033
    O   O43   0.899314  0.691786  0.468032  -0.401306
    O   O44   0.414875  0.500000  0.952960  -0.581674
    O   O45   0.093751  0.809877  0.505667  -0.384107
    O   O46   0.257023  0.415237  0.134460  -0.296551
    O   O47   0.500000  0.585125  0.047040  -0.515651
    O   O48   0.308214  0.531968  0.899314  -0.413868
    O   O49   0.190123  0.494333  0.093751  -0.267809
    O   O50   0.500000  0.585125  0.952960  -0.561943
    O   O51   0.742977  0.415237  0.865540  -0.336152
    O   O52   0.952960  0.500000  0.414875  -0.499115
    O   O53   0.585125  0.500000  0.047040  -0.561937
    O   O54   0.691786  0.531968  0.100686  -0.399739
    O   O55   0.809877  0.494333  0.906249  -0.289877
    O   O56   0.585125  0.500000  0.952960  -0.515657
    O   O57   0.547040  0.000000  0.914875  -0.609857
    O   O58   0.452960  0.000000  0.914875  -0.680252
    O   O59   0.547040  0.914875  0.000000  -0.608830
    O   O60   0.452960  0.914875  0.000000  -0.677804
    O   O61   0.547040  0.000000  0.085125  -0.609885
    O   O62   0.452960  0.000000  0.085125  -0.681970
    O   O63   0.547040  0.085125  0.000000  -0.610482
    O   O64   0.452960  0.085125  0.000000  -0.683390
    O   O65   0.914875  0.547040  0.000000  -0.608830
    O   O66   0.047040  0.414875  0.500000  -0.576484
    O   O67   0.914875  0.452960  0.000000  -0.677804
    O   O68   0.000000  0.547040  0.914875  -0.609886
    O   O69   0.000000  0.452960  0.914875  -0.681971
    O   O70   0.085125  0.547040  0.000000  -0.610482
    O   O71   0.085125  0.452960  0.000000  -0.683390
    O   O72   0.000000  0.547040  0.085125  -0.609857
    O   O73   0.000000  0.452960  0.085125  -0.680251
    O   O74   0.952960  0.414875  0.500000  -0.535671
    O   O75   0.000000  0.914875  0.547040  -0.699243
    O   O76   0.000000  0.914875  0.452960  -0.668886
    O   O77   0.914875  0.000000  0.547040  -0.668887
    O   O78   0.914875  0.000000  0.452960  -0.699247
    O   O79   0.000000  0.085125  0.547040  -0.705381
    O   O80   0.000000  0.085125  0.452960  -0.668251
    O   O81   0.085125  0.000000  0.547040  -0.668252
    O   O82   0.085125  0.000000  0.452960  -0.705385
    O   O83   0.047040  0.500000  0.585125  -0.519621
    O   O84   0.865540  0.415237  0.257023  -0.319427
