# Generated by REPEAT Assigner based on pymatgen
data_DB13-nbo-Syn031870
_audit_creation_date              2022-05-24
_audit_creation_method            REPEAT_Assigner
_cell_length_a                    22.340800
_cell_length_b                    22.340800
_cell_length_c                    22.340800
_cell_angle_alpha                 90.000000
_cell_angle_beta                  90.000000
_cell_angle_gamma                 90.000000
_cell_volume                      11150.546728
_symmetry_space_group_name_H-M    P1
_symmetry_Int_Tables_number       1
loop_
    _symmetry_equiv_pos_site_id
    _symmetry_equiv_pos_as_xyz
    1  x,y,z
loop_
    _atom_site_type_symbol
    _atom_site_label
    _atom_site_fract_x
    _atom_site_fract_y
    _atom_site_fract_z
    _atom_type_partial_charge
    Br  Br1   0.113888  0.563600  0.314397  0.064111
    Br  Br2   0.886112  0.563600  0.685603  0.077323
    Br  Br3   0.314397  0.113888  0.563600  0.072763
    Br  Br4   0.685603  0.886112  0.563600  0.107358
    Br  Br5   0.563600  0.314397  0.113888  0.054665
    Br  Br6   0.563600  0.685603  0.886112  0.082423
    Br  Br7   0.563600  0.113888  0.685603  0.064110
    Br  Br8   0.563600  0.886112  0.314397  0.077323
    Br  Br9   0.113888  0.314397  0.436400  0.072762
    Br  Br10  0.886112  0.685603  0.436400  0.107358
    Br  Br11  0.314397  0.563600  0.886112  0.054665
    Br  Br12  0.685603  0.563600  0.113888  0.082424
    C   C1    0.944967  0.470327  0.211870  -0.198871
    C   C2    0.990961  0.491317  0.181614  -0.244555
    C   C3    0.040590  0.520336  0.216079  0.630722
    C   C4    0.044808  0.521811  0.286209  -0.122660
    C   C5    0.999853  0.501811  0.319215  -0.252628
    C   C6    0.946727  0.474909  0.285512  0.507028
    C   C7    0.114991  0.434017  0.814300  0.311002
    C   C8    0.000000  0.612886  0.500000  0.931760
    C   C9    0.166584  0.432295  0.780048  -0.217192
    C   C10   0.218277  0.407800  0.801429  -0.058472
    C   C11   0.220611  0.385147  0.858455  -0.237721
    C   C12   0.171632  0.388204  0.894781  0.356167
    C   C13   0.178790  0.307871  0.963030  -0.089194
    C   C14   0.205926  0.290770  0.019042  0.409101
    C   C15   0.119099  0.412144  0.873748  -0.322999
    C   C16   0.055033  0.470327  0.788130  -0.193333
    C   C17   0.009039  0.491317  0.818386  -0.270226
    C   C18   0.959410  0.520336  0.783921  0.629986
    C   C19   0.955192  0.521811  0.713791  -0.129432
    C   C20   0.000147  0.501811  0.680785  -0.259464
    C   C21   0.053273  0.474909  0.714488  0.489870
    C   C22   0.185700  0.885009  0.434017  0.081846
    C   C23   0.219952  0.833416  0.432295  -0.116175
    C   C24   0.198571  0.781723  0.407800  -0.166610
    C   C25   0.141545  0.779389  0.385147  -0.120137
    C   C26   0.105219  0.828368  0.388204  0.198907
    C   C27   0.036970  0.821210  0.307871  -0.074741
    C   C28   0.980958  0.794074  0.290770  0.391196
    C   C29   0.126252  0.880901  0.412144  -0.183745
    C   C30   0.211870  0.944967  0.470327  -0.042928
    C   C31   0.181614  0.990961  0.491317  -0.222406
    C   C32   0.216079  0.040590  0.520336  0.552024
    C   C33   0.286209  0.044808  0.521811  -0.069818
    C   C34   0.319215  0.999853  0.501811  -0.295411
    C   C35   0.285512  0.946727  0.474909  0.459594
    C   C36   0.814300  0.114991  0.434017  0.080082
    C   C37   0.387114  0.000000  0.500000  0.951119
    C   C38   0.780048  0.166584  0.432295  -0.119918
    C   C39   0.801429  0.218277  0.407800  -0.111845
    C   C40   0.858455  0.220611  0.385147  -0.204307
    C   C41   0.894781  0.171632  0.388204  0.282713
    C   C42   0.963030  0.178790  0.307871  0.040647
    C   C43   0.019042  0.205926  0.290770  0.400765
    C   C44   0.873748  0.119099  0.412144  -0.239064
    C   C45   0.788130  0.055033  0.470327  -0.032659
    C   C46   0.818386  0.009039  0.491317  -0.232389
    C   C47   0.783921  0.959410  0.520336  0.566399
    C   C48   0.713791  0.955192  0.521811  -0.104356
    C   C49   0.680785  0.000147  0.501811  -0.292394
    C   C50   0.714488  0.053273  0.474909  0.444138
    C   C51   0.434017  0.185700  0.885009  0.305015
    C   C52   0.432295  0.219952  0.833416  -0.227403
    C   C53   0.407800  0.198571  0.781723  -0.106326
    C   C54   0.385147  0.141545  0.779389  -0.171587
    C   C55   0.388204  0.105219  0.828368  0.301668
    C   C56   0.500000  0.000000  0.387114  0.939772
    C   C57   0.307871  0.036970  0.821210  -0.062393
    C   C58   0.290770  0.980958  0.794074  0.371849
    C   C59   0.412144  0.126252  0.880901  -0.290058
    C   C60   0.000000  0.500000  0.387114  0.855873
    C   C61   0.470327  0.211870  0.944967  -0.183912
    C   C62   0.491317  0.181614  0.990961  -0.273864
    C   C63   0.520336  0.216079  0.040590  0.646700
    C   C64   0.521811  0.286209  0.044808  -0.112323
    C   C65   0.501811  0.319215  0.999853  -0.255031
    C   C66   0.474909  0.285512  0.946727  0.496854
    C   C67   0.434017  0.814300  0.114991  0.313094
    C   C68   0.432295  0.780048  0.166584  -0.228820
    C   C69   0.407800  0.801429  0.218277  -0.084909
    C   C70   0.385147  0.858455  0.220611  -0.197807
    C   C71   0.388204  0.894781  0.171632  0.336667
    C   C72   0.307871  0.963030  0.178790  -0.169077
    C   C73   0.290770  0.019042  0.205926  0.407514
    C   C74   0.412144  0.873748  0.119099  -0.315328
    C   C75   0.612886  0.000000  0.500000  0.931759
    C   C76   0.470327  0.788130  0.055033  -0.201253
    C   C77   0.491317  0.818386  0.009039  -0.239714
    C   C78   0.520336  0.783921  0.959410  0.620147
    C   C79   0.521811  0.713791  0.955192  -0.128964
    C   C80   0.501811  0.680785  0.000147  -0.276206
    C   C81   0.474909  0.714488  0.053273  0.504779
    C   C82   0.434017  0.885009  0.814300  0.327069
    C   C83   0.432295  0.833416  0.780048  -0.248100
    C   C84   0.407800  0.781723  0.801429  -0.112544
    C   C85   0.385147  0.779389  0.858455  -0.171252
    C   C86   0.388204  0.828368  0.894781  0.309963
    C   C87   0.307871  0.821210  0.963030  -0.180218
    C   C88   0.290770  0.794074  0.019042  0.413234
    C   C89   0.412144  0.880901  0.873748  -0.293368
    C   C90   0.500000  0.000000  0.612886  0.855876
    C   C91   0.470327  0.944967  0.788130  -0.198874
    C   C92   0.491317  0.990961  0.818386  -0.244552
    C   C93   0.520336  0.040590  0.783921  0.630718
    C   C94   0.521811  0.044808  0.713791  -0.122657
    C   C95   0.501811  0.999853  0.680785  -0.252630
    C   C96   0.474909  0.946727  0.714488  0.507030
    C   C97   0.434017  0.114991  0.185700  0.311001
    C   C98   0.432295  0.166584  0.219952  -0.217190
    C   C99   0.407800  0.218277  0.198571  -0.058470
    C   C100  0.385147  0.220611  0.141545  -0.237724
    C   C101  0.388204  0.171632  0.105219  0.356171
    C   C102  0.307871  0.178790  0.036970  -0.089199
    C   C103  0.290770  0.205926  0.980958  0.409106
    C   C104  0.412144  0.119099  0.126252  -0.323002
    C   C105  0.470327  0.055033  0.211870  -0.193329
    C   C106  0.491317  0.009039  0.181614  -0.270230
    C   C107  0.520336  0.959410  0.216079  0.629990
    C   C108  0.521811  0.955192  0.286209  -0.129435
    C   C109  0.501811  0.000147  0.319215  -0.259461
    C   C110  0.474909  0.053273  0.285512  0.489866
    C   C111  0.885009  0.185700  0.565983  0.081842
    C   C112  0.833416  0.219952  0.567705  -0.116171
    C   C113  0.781723  0.198571  0.592200  -0.166613
    C   C114  0.779389  0.141545  0.614853  -0.120134
    C   C115  0.828368  0.105219  0.611796  0.198903
    C   C116  0.821210  0.036970  0.692129  -0.074733
    C   C117  0.794074  0.980958  0.709230  0.391192
    C   C118  0.880901  0.126252  0.587856  -0.183743
    C   C119  0.500000  0.387114  0.000000  0.915379
    C   C120  0.944967  0.211870  0.529673  -0.042925
    C   C121  0.990961  0.181614  0.508683  -0.222412
    C   C122  0.040590  0.216079  0.479664  0.552025
    C   C123  0.044808  0.286209  0.478189  -0.069817
    C   C124  0.999853  0.319215  0.498189  -0.295410
    C   C125  0.946727  0.285512  0.525091  0.459592
    C   C126  0.114991  0.814300  0.565983  0.080078
    C   C127  0.166584  0.780048  0.567705  -0.119913
    C   C128  0.218277  0.801429  0.592200  -0.111848
    C   C129  0.220611  0.858455  0.614853  -0.204302
    C   C130  0.171632  0.894781  0.611796  0.282709
    C   C131  0.178790  0.963030  0.692129  0.040657
    C   C132  0.205926  0.019042  0.709230  0.400761
    C   C133  0.119099  0.873748  0.587856  -0.239061
    C   C134  0.055033  0.788130  0.529673  -0.032655
    C   C135  0.009039  0.818386  0.508683  -0.232395
    C   C136  0.959410  0.783921  0.479664  0.566401
    C   C137  0.955192  0.713791  0.478189  -0.104356
    C   C138  0.387114  0.500000  0.000000  0.915377
    C   C139  0.000147  0.680785  0.498189  -0.292393
    C   C140  0.053273  0.714488  0.525091  0.444135
    C   C141  0.185700  0.434017  0.114991  0.305016
    C   C142  0.219952  0.432295  0.166584  -0.227406
    C   C143  0.198571  0.407800  0.218277  -0.106323
    C   C144  0.141545  0.385147  0.220611  -0.171588
    C   C145  0.105219  0.388204  0.171632  0.301669
    C   C146  0.036970  0.307871  0.178790  -0.062392
    C   C147  0.980958  0.290770  0.205926  0.371848
    C   C148  0.126252  0.412144  0.119099  -0.290060
    C   C149  0.211870  0.470327  0.055033  -0.183911
    C   C150  0.181614  0.491317  0.009039  -0.273866
    C   C151  0.216079  0.520336  0.959410  0.646702
    C   C152  0.286209  0.521811  0.955192  -0.112323
    C   C153  0.319215  0.501811  0.000147  -0.255031
    C   C154  0.285512  0.474909  0.053273  0.496853
    C   C155  0.814300  0.434017  0.885009  0.313094
    C   C156  0.500000  0.612886  0.000000  0.902323
    C   C157  0.780048  0.432295  0.833416  -0.228818
    C   C158  0.801429  0.407800  0.781723  -0.084911
    C   C159  0.858455  0.385147  0.779389  -0.197809
    C   C160  0.894781  0.388204  0.828368  0.336669
    C   C161  0.963030  0.307871  0.821210  -0.169080
    C   C162  0.019042  0.290770  0.794074  0.407517
    C   C163  0.873748  0.412144  0.880901  -0.315329
    C   C164  0.788130  0.470327  0.944967  -0.201256
    C   C165  0.818386  0.491317  0.990961  -0.239710
    C   C166  0.783921  0.520336  0.040590  0.620143
    C   C167  0.713791  0.521811  0.044808  -0.128962
    C   C168  0.680785  0.501811  0.999853  -0.276209
    C   C169  0.714488  0.474909  0.946727  0.504783
    C   C170  0.612886  0.500000  0.000000  0.902324
    C   C171  0.500000  0.000000  0.887114  0.879055
    C   C172  0.500000  0.887114  0.000000  0.884431
    C   C173  0.000000  0.387114  0.500000  0.951119
    C   C174  0.500000  0.000000  0.112886  0.917121
    C   C175  0.500000  0.112886  0.000000  0.900275
    C   C176  0.887114  0.500000  0.000000  0.884431
    C   C177  0.000000  0.500000  0.887114  0.917117
    C   C178  0.112886  0.500000  0.000000  0.900275
    C   C179  0.000000  0.500000  0.112886  0.879059
    C   C180  0.000000  0.887114  0.500000  0.911008
    C   C181  0.887114  0.000000  0.500000  0.911004
    C   C182  0.000000  0.112886  0.500000  0.909289
    C   C183  0.000000  0.500000  0.612886  0.939775
    C   C184  0.112886  0.000000  0.500000  0.909285
    C   C185  0.885009  0.434017  0.185700  0.327068
    C   C186  0.833416  0.432295  0.219952  -0.248099
    C   C187  0.781723  0.407800  0.198571  -0.112543
    C   C188  0.779389  0.385147  0.141545  -0.171255
    C   C189  0.828368  0.388204  0.105219  0.309967
    C   C190  0.821210  0.307871  0.036970  -0.180221
    C   C191  0.794074  0.290770  0.980958  0.413239
    C   C192  0.880901  0.412144  0.126252  -0.293372
    Cu  Cu1   0.940573  0.500000  0.500000  0.999782
    Cu  Cu2   0.059427  0.500000  0.500000  0.999799
    Cu  Cu3   0.500000  0.940573  0.500000  0.999782
    Cu  Cu4   0.500000  0.059427  0.500000  0.999799
    Cu  Cu5   0.500000  0.500000  0.940573  0.997818
    Cu  Cu6   0.500000  0.500000  0.059427  0.997813
    Cu  Cu7   0.440573  0.000000  0.000000  0.818746
    Cu  Cu8   0.559427  0.000000  0.000000  1.059448
    Cu  Cu9   0.000000  0.440573  0.000000  0.818746
    Cu  Cu10  0.000000  0.559427  0.000000  1.059448
    Cu  Cu11  0.000000  0.000000  0.440573  0.988377
    Cu  Cu12  0.000000  0.000000  0.559427  0.988373
    H   H1    0.167589  0.454692  0.734287  0.139546
    H   H2    0.257852  0.407535  0.772795  0.109517
    H   H3    0.263600  0.364872  0.871307  0.155285
    H   H4    0.208139  0.284319  0.930339  0.154391
    H   H5    0.133995  0.288604  0.966779  0.088052
    H   H6    0.080656  0.407736  0.902542  0.147561
    H   H7    0.265713  0.832411  0.454692  0.132439
    H   H8    0.227205  0.742148  0.407535  0.145322
    H   H9    0.128693  0.736400  0.364872  0.118985
    H   H10   0.069661  0.791861  0.284319  0.094832
    H   H11   0.033221  0.866005  0.288604  0.117187
    H   H12   0.097458  0.919344  0.407736  0.150804
    H   H13   0.734287  0.167589  0.454692  0.137696
    H   H14   0.772795  0.257852  0.407535  0.115474
    H   H15   0.871307  0.263600  0.364872  0.156047
    H   H16   0.930339  0.208139  0.284319  0.106693
    H   H17   0.966779  0.133995  0.288604  0.068525
    H   H18   0.902542  0.080656  0.407736  0.171202
    H   H19   0.454692  0.265713  0.832411  0.147885
    H   H20   0.407535  0.227205  0.742148  0.133093
    H   H21   0.364872  0.128693  0.736400  0.141979
    H   H22   0.284319  0.069661  0.791861  0.131440
    H   H23   0.288604  0.033221  0.866005  0.093492
    H   H24   0.407736  0.097458  0.919344  0.134943
    H   H25   0.454692  0.734287  0.167589  0.160340
    H   H26   0.407535  0.772795  0.257852  0.114280
    H   H27   0.364872  0.871307  0.263600  0.125987
    H   H28   0.284319  0.930339  0.208139  0.121652
    H   H29   0.288604  0.966779  0.133995  0.119328
    H   H30   0.407736  0.902542  0.080656  0.139533
    H   H31   0.454692  0.832411  0.734287  0.163342
    H   H32   0.407535  0.742148  0.772795  0.137094
    H   H33   0.364872  0.736400  0.871307  0.122397
    H   H34   0.284319  0.791861  0.930339  0.127430
    H   H35   0.288604  0.866005  0.966779  0.127335
    H   H36   0.407736  0.919344  0.902542  0.132825
    H   H37   0.454692  0.167589  0.265713  0.139545
    H   H38   0.407535  0.257852  0.227205  0.109516
    H   H39   0.364872  0.263600  0.128693  0.155286
    H   H40   0.284319  0.208139  0.069661  0.154391
    H   H41   0.288604  0.133995  0.033221  0.088053
    H   H42   0.407736  0.080656  0.097458  0.147563
    H   H43   0.832411  0.265713  0.545308  0.132438
    H   H44   0.742148  0.227205  0.592465  0.145322
    H   H45   0.736400  0.128693  0.635128  0.118985
    H   H46   0.791861  0.069661  0.715681  0.094830
    H   H47   0.866005  0.033221  0.711396  0.117185
    H   H48   0.919344  0.097458  0.592264  0.150804
    H   H49   0.167589  0.734287  0.545308  0.137695
    H   H50   0.257852  0.772795  0.592465  0.115474
    H   H51   0.263600  0.871307  0.635128  0.156046
    H   H52   0.208139  0.930339  0.715681  0.106689
    H   H53   0.133995  0.966779  0.711396  0.068523
    H   H54   0.080656  0.902542  0.592264  0.171202
    H   H55   0.265713  0.454692  0.167589  0.147885
    H   H56   0.227205  0.407535  0.257852  0.133092
    H   H57   0.128693  0.364872  0.263600  0.141979
    H   H58   0.069661  0.284319  0.208139  0.131440
    H   H59   0.033221  0.288604  0.133995  0.093492
    H   H60   0.097458  0.407736  0.080656  0.134944
    H   H61   0.734287  0.454692  0.832411  0.160340
    H   H62   0.772795  0.407535  0.742148  0.114281
    H   H63   0.871307  0.364872  0.736400  0.125988
    H   H64   0.930339  0.284319  0.791861  0.121652
    H   H65   0.966779  0.288604  0.866005  0.119328
    H   H66   0.902542  0.407736  0.919344  0.139533
    H   H67   0.832411  0.454692  0.265713  0.163341
    H   H68   0.742148  0.407535  0.227205  0.137094
    H   H69   0.736400  0.364872  0.128693  0.122398
    H   H70   0.791861  0.284319  0.069661  0.127430
    H   H71   0.866005  0.288604  0.033221  0.127335
    H   H72   0.919344  0.407736  0.097458  0.132827
    N   N1    0.228943  0.271057  0.060866  -0.490902
    N   N2    0.939134  0.771057  0.271057  -0.452923
    N   N3    0.060866  0.228943  0.271057  -0.469907
    N   N4    0.271057  0.939134  0.771057  -0.481363
    N   N5    0.271057  0.060866  0.228943  -0.464404
    N   N6    0.271057  0.771057  0.060866  -0.468818
    N   N7    0.271057  0.228943  0.939134  -0.490905
    N   N8    0.771057  0.939134  0.728943  -0.452922
    N   N9    0.228943  0.060866  0.728943  -0.469906
    N   N10   0.939134  0.271057  0.228943  -0.481363
    N   N11   0.060866  0.271057  0.771057  -0.464405
    N   N12   0.771057  0.271057  0.939134  -0.468820
    O   O1    0.952708  0.500000  0.585581  -0.660078
    O   O2    0.084042  0.542374  0.190962  -0.470970
    O   O3    0.907531  0.451619  0.316778  -0.363497
    O   O4    0.173583  0.372479  0.953953  -0.255785
    O   O5    0.047292  0.585581  0.500000  -0.619671
    O   O6    0.915958  0.542374  0.809038  -0.476335
    O   O7    0.952708  0.585581  0.500000  -0.674527
    O   O8    0.092469  0.451619  0.683222  -0.347783
    O   O9    0.046047  0.826417  0.372479  -0.240291
    O   O10   0.190962  0.084042  0.542374  -0.430213
    O   O11   0.316778  0.907531  0.451619  -0.370953
    O   O12   0.953953  0.173583  0.372479  -0.308908
    O   O13   0.414419  0.047292  0.500000  -0.662114
    O   O14   0.809038  0.915958  0.542374  -0.436586
    O   O15   0.414419  0.952708  0.500000  -0.630167
    O   O16   0.683222  0.092469  0.451619  -0.372055
    O   O17   0.372479  0.046047  0.826417  -0.252319
    O   O18   0.500000  0.047292  0.414419  -0.626480
    O   O19   0.542374  0.190962  0.084042  -0.485933
    O   O20   0.451619  0.316778  0.907531  -0.361690
    O   O21   0.500000  0.952708  0.414419  -0.660077
    O   O22   0.372479  0.953953  0.173583  -0.201045
    O   O23   0.542374  0.809038  0.915958  -0.468052
    O   O24   0.585581  0.047292  0.500000  -0.619670
    O   O25   0.451619  0.683222  0.092469  -0.358458
    O   O26   0.372479  0.826417  0.953953  -0.210631
    O   O27   0.585581  0.952708  0.500000  -0.674526
    O   O28   0.542374  0.084042  0.809038  -0.470969
    O   O29   0.451619  0.907531  0.683222  -0.363498
    O   O30   0.500000  0.047292  0.585581  -0.657674
    O   O31   0.372479  0.173583  0.046047  -0.255786
    O   O32   0.500000  0.952708  0.585581  -0.610743
    O   O33   0.542374  0.915958  0.190962  -0.476336
    O   O34   0.451619  0.092469  0.316778  -0.347782
    O   O35   0.826417  0.046047  0.627521  -0.240292
    O   O36   0.047292  0.500000  0.414419  -0.657673
    O   O37   0.084042  0.190962  0.457626  -0.430213
    O   O38   0.907531  0.316778  0.548381  -0.370952
    O   O39   0.500000  0.414419  0.047292  -0.656657
    O   O40   0.173583  0.953953  0.627521  -0.308910
    O   O41   0.500000  0.414419  0.952708  -0.618144
    O   O42   0.915958  0.809038  0.457626  -0.436587
    O   O43   0.092469  0.683222  0.548381  -0.372053
    O   O44   0.046047  0.372479  0.173583  -0.252318
    O   O45   0.414419  0.500000  0.047292  -0.618140
    O   O46   0.414419  0.500000  0.952708  -0.656659
    O   O47   0.190962  0.542374  0.915958  -0.485934
    O   O48   0.316778  0.451619  0.092469  -0.361690
    O   O49   0.953953  0.372479  0.826417  -0.201045
    O   O50   0.500000  0.585581  0.047292  -0.617380
    O   O51   0.809038  0.542374  0.084042  -0.468050
    O   O52   0.500000  0.585581  0.952708  -0.663240
    O   O53   0.683222  0.451619  0.907531  -0.358460
    O   O54   0.952708  0.500000  0.414419  -0.610741
    O   O55   0.585581  0.500000  0.047292  -0.663236
    O   O56   0.585581  0.500000  0.952708  -0.617383
    O   O57   0.547292  0.000000  0.914419  -0.649991
    O   O58   0.452708  0.000000  0.914419  -0.546648
    O   O59   0.547292  0.914419  0.000000  -0.654619
    O   O60   0.452708  0.914419  0.000000  -0.546826
    O   O61   0.547292  0.000000  0.085581  -0.664127
    O   O62   0.452708  0.000000  0.085581  -0.568404
    O   O63   0.547292  0.085581  0.000000  -0.653209
    O   O64   0.452708  0.085581  0.000000  -0.551974
    O   O65   0.914419  0.547292  0.000000  -0.654620
    O   O66   0.047292  0.414419  0.500000  -0.662115
    O   O67   0.914419  0.452708  0.000000  -0.546826
    O   O68   0.000000  0.547292  0.914419  -0.664127
    O   O69   0.000000  0.452708  0.914419  -0.568401
    O   O70   0.085581  0.547292  0.000000  -0.653209
    O   O71   0.085581  0.452708  0.000000  -0.551973
    O   O72   0.000000  0.547292  0.085581  -0.649992
    O   O73   0.000000  0.452708  0.085581  -0.546651
    O   O74   0.952708  0.414419  0.500000  -0.630167
    O   O75   0.000000  0.914419  0.547292  -0.686542
    O   O76   0.000000  0.914419  0.452708  -0.594696
    O   O77   0.914419  0.000000  0.547292  -0.594694
    O   O78   0.914419  0.000000  0.452708  -0.686543
    O   O79   0.000000  0.085581  0.547292  -0.683520
    O   O80   0.000000  0.085581  0.452708  -0.597324
    O   O81   0.085581  0.000000  0.547292  -0.597322
    O   O82   0.085581  0.000000  0.452708  -0.683521
    O   O83   0.826417  0.372479  0.046047  -0.210632
    O   O84   0.047292  0.500000  0.585581  -0.626482
