# Generated by REPEAT Assigner based on pymatgen
data_DB13-cds-Syn027724
_audit_creation_date              2022-05-24
_audit_creation_method            REPEAT_Assigner
_cell_length_a                    13.174200
_cell_length_b                    13.174200
_cell_length_c                    26.348400
_cell_angle_alpha                 90.000000
_cell_angle_beta                  90.000000
_cell_angle_gamma                 90.000000
_cell_volume                      4573.016332
_symmetry_space_group_name_H-M    P1
_symmetry_Int_Tables_number       1
loop_
    _symmetry_equiv_pos_site_id
    _symmetry_equiv_pos_as_xyz
    1  x,y,z
loop_
    _atom_site_type_symbol
    _atom_site_label
    _atom_site_fract_x
    _atom_site_fract_y
    _atom_site_fract_z
    _atom_type_partial_charge
    Cu  Cu1  0.899224  0.000000  0.000000  1.023511
    Cu  Cu2  0.100776  0.000000  0.000000  1.028260
    C   C1   0.000000  0.000000  0.904284  1.018972
    O   O1   0.080198  0.000000  0.927435  -0.647466
    O   O2   0.919802  0.000000  0.927435  -0.712934
    C   C2   0.000000  0.808568  0.000000  0.958200
    O   O3   0.080198  0.854871  0.000000  -0.676186
    O   O4   0.919802  0.854871  0.000000  -0.620205
    C   C3   0.000000  0.000000  0.095716  0.844271
    O   O5   0.080198  0.000000  0.072565  -0.642224
    O   O6   0.919802  0.000000  0.072565  -0.669321
    C   C4   0.000000  0.191432  0.000000  0.760570
    O   O7   0.080198  0.145129  0.000000  -0.642363
    O   O8   0.919802  0.145129  0.000000  -0.597482
    Cu  Cu3  0.000000  0.899224  0.500000  1.006953
    Cu  Cu4  0.000000  0.100776  0.500000  1.037928
    C   C5   0.000000  0.000000  0.404284  1.016930
    O   O9   0.000000  0.080198  0.427435  -0.659936
    O   O10  0.000000  0.919802  0.427435  -0.700077
    C   C6   0.191432  0.000000  0.500000  0.965514
    O   O11  0.145129  0.080198  0.500000  -0.665539
    O   O12  0.145129  0.919802  0.500000  -0.618686
    C   C7   0.000000  0.000000  0.595716  0.845110
    O   O13  0.000000  0.080198  0.572565  -0.679069
    O   O14  0.000000  0.919802  0.572565  -0.627419
    C   C8   0.808568  0.000000  0.500000  0.742754
    O   O15  0.854871  0.080198  0.500000  -0.637920
    O   O16  0.854871  0.919802  0.500000  -0.601803
    N   N1   0.886351  0.025537  0.770911  -0.366377
    C   C9   0.966321  0.998691  0.735221  0.783025
    N   N2   0.939484  0.000819  0.686594  -0.612468
    C   C10  0.020266  0.982321  0.653317  0.435674
    N   N3   0.118512  0.956859  0.668510  -0.635851
    C   C11  0.134762  0.948207  0.719775  0.726358
    C   C12  0.062679  0.975204  0.754916  -0.730984
    C   C13  0.073062  0.977515  0.811411  0.773369
    O   O17  0.153653  0.946941  0.829495  -0.523983
    C   C14  0.990047  0.004317  0.847665  -0.571450
    C   C15  0.901267  0.027407  0.823907  0.172066
    C   C16  0.245102  0.922885  0.732354  -0.255657
    C   C17  0.783415  0.044064  0.747955  0.243849
    C   C18  0.773275  0.160275  0.742333  -0.225665
    H   H1   0.832295  0.048190  0.842761  0.141319
    H   H2   0.287991  0.950800  0.699469  0.102640
    H   H3   0.270845  0.973324  0.761104  0.143482
    H   H4   0.722518  0.020641  0.772484  0.006949
    H   H5   0.773221  0.998646  0.713348  0.029328
    H   H6   0.694623  0.177596  0.731456  0.065327
    H   H7   0.817191  0.178575  0.708800  0.054295
    H   H8   0.793020  0.198861  0.777205  0.081112
    C   C19  0.260466  0.814670  0.739888  0.372866
    N   N4   0.272322  0.727678  0.744152  -0.459060
    N   N5   0.974463  0.886351  0.270911  -0.359638
    C   C20  0.001309  0.966321  0.235221  0.774925
    N   N6   0.999181  0.939484  0.186594  -0.617013
    C   C21  0.017679  0.020266  0.153317  0.446951
    N   N7   0.043141  0.118512  0.168510  -0.637128
    C   C22  0.051793  0.134762  0.219775  0.712258
    C   C23  0.024796  0.062679  0.254916  -0.711789
    C   C24  0.022485  0.073062  0.311411  0.759490
    O   O18  0.053059  0.153653  0.329495  -0.517838
    C   C25  0.995683  0.990047  0.347665  -0.559151
    C   C26  0.972593  0.901267  0.323907  0.157321
    C   C27  0.077115  0.245102  0.232354  -0.257098
    C   C28  0.955936  0.783415  0.247955  0.265663
    C   C29  0.839725  0.773275  0.242333  -0.246053
    H   H9   0.951810  0.832295  0.342761  0.143359
    H   H10  0.049200  0.287991  0.199469  0.103821
    H   H11  0.026676  0.270845  0.261104  0.147694
    H   H12  0.979359  0.722518  0.272484  0.001579
    H   H13  0.001354  0.773221  0.213348  0.021171
    H   H14  0.822404  0.694623  0.231456  0.071271
    H   H15  0.821425  0.817191  0.208800  0.062954
    H   H16  0.801139  0.793020  0.277205  0.083639
    C   C30  0.185330  0.260466  0.239888  0.364232
    N   N8   0.272322  0.272322  0.244152  -0.455692
    N   N9   0.098419  0.541821  0.968848  -0.343893
    C   C31  0.022890  0.470442  0.987630  0.737985
    N   N10  0.043370  0.373188  0.978894  -0.572410
    C   C32  0.973169  0.306634  0.000915  0.429491
    N   N11  0.885694  0.337019  0.026648  -0.620376
    C   C33  0.868086  0.439550  0.029334  0.697890
    C   C34  0.938146  0.509831  0.013394  -0.682544
    C   C35  0.932438  0.622821  0.017882  0.738264
    O   O19  0.853833  0.658990  0.035565  -0.515894
    C   C36  0.010090  0.695329  0.998007  -0.512356
    C   C37  0.089194  0.647814  0.974782  0.134704
    C   C38  0.772158  0.464709  0.059392  -0.231884
    C   C39  0.184306  0.495910  0.939005  0.214709
    C   C40  0.273650  0.484665  0.976506  -0.188004
    H   H17  0.152661  0.685523  0.957745  0.152503
    H   H18  0.761570  0.398938  0.084425  0.102681
    H   H19  0.789621  0.522207  0.086327  0.138787
    H   H20  0.210804  0.544968  0.909193  0.018477
    H   H21  0.159400  0.426696  0.919343  0.026872
    H   H22  0.341513  0.462911  0.954823  0.070663
    H   H23  0.255537  0.417600  0.998503  0.044132
    H   H24  0.286973  0.554410  0.997130  0.077833
    C   C41  0.684775  0.479776  0.026565  0.350903
    N   N12  0.614879  0.488304  0.000000  -0.447509
    N   N13  0.458179  0.098419  0.468848  -0.331658
    C   C42  0.529558  0.022890  0.487630  0.728855
    N   N14  0.626812  0.043370  0.478894  -0.580481
    C   C43  0.693366  0.973169  0.500915  0.456856
    N   N15  0.662981  0.885694  0.526648  -0.630996
    C   C44  0.560450  0.868086  0.529334  0.692405
    C   C45  0.490169  0.938146  0.513394  -0.681604
    C   C46  0.377179  0.932438  0.517882  0.749109
    O   O20  0.341010  0.853833  0.535565  -0.514259
    C   C47  0.304671  0.010090  0.498007  -0.528262
    C   C48  0.352186  0.089194  0.474782  0.134482
    C   C49  0.535291  0.772158  0.559392  -0.222200
    C   C50  0.504090  0.184306  0.439005  0.205125
    C   C51  0.515335  0.273650  0.476506  -0.189546
    H   H25  0.314477  0.152661  0.457745  0.148119
    H   H26  0.601062  0.761570  0.584425  0.098961
    H   H27  0.477793  0.789621  0.586327  0.140246
    H   H28  0.455032  0.210804  0.409193  0.022936
    H   H29  0.573304  0.159400  0.419343  0.029574
    H   H30  0.537089  0.341513  0.454823  0.071393
    H   H31  0.582400  0.255537  0.498503  0.041498
    H   H32  0.445590  0.286973  0.497130  0.079989
    C   C52  0.520224  0.684775  0.526565  0.353678
    N   N16  0.511696  0.614879  0.500000  -0.450679
