# Generated by REPEAT Assigner based on pymatgen
data_DB13-nbo-Syn039532
_audit_creation_date              2022-05-24
_audit_creation_method            REPEAT_Assigner
_cell_length_a                    22.111400
_cell_length_b                    22.111400
_cell_length_c                    22.111400
_cell_angle_alpha                 90.000000
_cell_angle_beta                  90.000000
_cell_angle_gamma                 90.000000
_cell_volume                      10810.573240
_symmetry_space_group_name_H-M    P1
_symmetry_Int_Tables_number       1
loop_
    _symmetry_equiv_pos_site_id
    _symmetry_equiv_pos_as_xyz
    1  x,y,z
loop_
    _atom_site_type_symbol
    _atom_site_label
    _atom_site_fract_x
    _atom_site_fract_y
    _atom_site_fract_z
    _atom_type_partial_charge
    Br  Br1   0.313043  0.106251  0.592841  0.039443
    Br  Br2   0.686957  0.893749  0.592841  0.045158
    Br  Br3   0.592841  0.313043  0.106251  0.043321
    Br  Br4   0.592841  0.686957  0.893749  0.048202
    Br  Br5   0.592841  0.106251  0.686957  0.048667
    Br  Br6   0.592841  0.893749  0.313043  0.043377
    Br  Br7   0.106251  0.313043  0.407159  0.039444
    Br  Br8   0.893749  0.686957  0.407159  0.045172
    Br  Br9   0.313043  0.592841  0.893749  0.043319
    Br  Br10  0.686957  0.592841  0.106251  0.048211
    Br  Br11  0.106251  0.592841  0.313043  0.048672
    Br  Br12  0.893749  0.592841  0.686957  0.043366
    C   C1    0.033337  0.462120  0.779389  0.616522
    C   C2    0.995435  0.498839  0.816714  -0.572959
    C   C3    0.954235  0.534113  0.785260  0.576940
    C   C4    0.080117  0.417781  0.801147  -0.399411
    C   C5    0.000000  0.614057  0.500000  0.744785
    C   C6    0.279258  0.048844  0.536630  -0.357584
    C   C7    0.314019  0.010258  0.498459  0.299357
    C   C8    0.220611  0.966663  0.462120  0.641041
    C   C9    0.183286  0.004565  0.498839  -0.558023
    C   C10   0.214740  0.045765  0.534113  0.516550
    C   C11   0.198853  0.919883  0.417781  -0.393450
    C   C12   0.720742  0.951156  0.536630  -0.418514
    C   C13   0.685981  0.989742  0.498459  0.391971
    C   C14   0.779389  0.033337  0.462120  0.645479
    C   C15   0.816714  0.995435  0.498839  -0.579716
    C   C16   0.785260  0.954235  0.534113  0.554497
    C   C17   0.801147  0.080117  0.417781  -0.359362
    C   C18   0.536630  0.279258  0.048844  -0.384092
    C   C19   0.498459  0.314019  0.010258  0.300449
    C   C20   0.462120  0.220611  0.966663  0.618937
    C   C21   0.498839  0.183286  0.004565  -0.574262
    C   C22   0.534113  0.214740  0.045765  0.578989
    C   C23   0.417781  0.198853  0.919883  -0.403510
    C   C24   0.536630  0.720742  0.951156  -0.440883
    C   C25   0.498459  0.685981  0.989742  0.391886
    C   C26   0.462120  0.779389  0.033337  0.625388
    C   C27   0.498839  0.816714  0.995435  -0.593746
    C   C28   0.534113  0.785260  0.954235  0.609512
    C   C29   0.417781  0.801147  0.080117  -0.376373
    C   C30   0.385943  0.000000  0.500000  0.872419
    C   C31   0.536630  0.048844  0.720742  -0.444265
    C   C32   0.498459  0.010258  0.685981  0.399515
    C   C33   0.462120  0.966663  0.779389  0.629830
    C   C34   0.498839  0.004565  0.816714  -0.597305
    C   C35   0.534113  0.045765  0.785260  0.613462
    C   C36   0.417781  0.919883  0.801147  -0.381184
    C   C37   0.536630  0.951156  0.279258  -0.382319
    C   C38   0.498459  0.989742  0.314019  0.293924
    C   C39   0.462120  0.033337  0.220611  0.616440
    C   C40   0.498839  0.995435  0.183286  -0.573000
    C   C41   0.534113  0.954235  0.214740  0.576992
    C   C42   0.417781  0.080117  0.198853  -0.398916
    C   C43   0.048844  0.279258  0.463370  -0.357596
    C   C44   0.500000  0.000000  0.385943  0.882067
    C   C45   0.010258  0.314019  0.501541  0.299372
    C   C46   0.966663  0.220611  0.537880  0.641048
    C   C47   0.004565  0.183286  0.501161  -0.558029
    C   C48   0.045765  0.214740  0.465887  0.516561
    C   C49   0.919883  0.198853  0.582219  -0.393458
    C   C50   0.000000  0.500000  0.385943  0.738702
    C   C51   0.951156  0.720742  0.463370  -0.418543
    C   C52   0.989742  0.685981  0.501541  0.391999
    C   C53   0.033337  0.779389  0.537880  0.645490
    C   C54   0.995435  0.816714  0.501161  -0.579726
    C   C55   0.954235  0.785260  0.465887  0.554514
    C   C56   0.080117  0.801147  0.582219  -0.359375
    C   C57   0.279258  0.536630  0.951156  -0.384092
    C   C58   0.314019  0.498459  0.989742  0.300482
    C   C59   0.220611  0.462120  0.033337  0.618861
    C   C60   0.183286  0.498839  0.995435  -0.574286
    C   C61   0.614057  0.000000  0.500000  0.744804
    C   C62   0.214740  0.534113  0.954235  0.579002
    C   C63   0.198853  0.417781  0.080117  -0.403057
    C   C64   0.720742  0.536630  0.048844  -0.440888
    C   C65   0.685981  0.498459  0.010258  0.391882
    C   C66   0.779389  0.462120  0.966663  0.625399
    C   C67   0.816714  0.498839  0.004565  -0.593758
    C   C68   0.785260  0.534113  0.045765  0.609523
    C   C69   0.801147  0.417781  0.919883  -0.376379
    C   C70   0.500000  0.000000  0.614057  0.738693
    C   C71   0.500000  0.385943  0.000000  0.874213
    C   C72   0.385943  0.500000  0.000000  0.874209
    C   C73   0.500000  0.614057  0.000000  0.745047
    C   C74   0.614057  0.500000  0.000000  0.745043
    C   C75   0.500000  0.000000  0.885943  0.968185
    C   C76   0.500000  0.885943  0.000000  0.968921
    C   C77   0.000000  0.385943  0.500000  0.872405
    C   C78   0.500000  0.000000  0.114057  0.967702
    C   C79   0.500000  0.114057  0.000000  0.966295
    C   C80   0.885943  0.500000  0.000000  0.968915
    C   C81   0.000000  0.500000  0.885943  0.967722
    C   C82   0.114057  0.500000  0.000000  0.966261
    C   C83   0.000000  0.500000  0.114057  0.968206
    C   C84   0.000000  0.885943  0.500000  0.971828
    C   C85   0.885943  0.000000  0.500000  0.971836
    C   C86   0.000000  0.114057  0.500000  0.963895
    C   C87   0.000000  0.500000  0.614057  0.882068
    C   C88   0.114057  0.000000  0.500000  0.963902
    C   C89   0.048844  0.536630  0.279258  -0.444285
    C   C90   0.010258  0.498459  0.314019  0.399522
    C   C91   0.966663  0.462120  0.220611  0.629819
    C   C92   0.004565  0.498839  0.183286  -0.597309
    C   C93   0.045765  0.534113  0.214740  0.613484
    C   C94   0.919883  0.417781  0.198853  -0.381159
    C   C95   0.951156  0.536630  0.720742  -0.382289
    C   C96   0.989742  0.498459  0.685981  0.293883
    Cu  Cu1   0.939957  0.500000  0.500000  1.009742
    Cu  Cu2   0.060043  0.500000  0.500000  1.008973
    Cu  Cu3   0.500000  0.939957  0.500000  1.009743
    Cu  Cu4   0.500000  0.060043  0.500000  1.008978
    Cu  Cu5   0.500000  0.500000  0.939957  1.009098
    Cu  Cu6   0.500000  0.500000  0.060043  1.009125
    Cu  Cu7   0.439957  0.000000  0.000000  0.924646
    Cu  Cu8   0.560043  0.000000  0.000000  0.992310
    Cu  Cu9   0.000000  0.439957  0.000000  0.924646
    Cu  Cu10  0.000000  0.560043  0.000000  0.992310
    Cu  Cu11  0.000000  0.000000  0.439957  0.964205
    Cu  Cu12  0.000000  0.000000  0.560043  0.964213
    H   H1    0.894413  0.593622  0.789345  0.267729
    H   H2    0.052500  0.384874  0.823969  0.113622
    H   H3    0.108037  0.436859  0.838017  0.081051
    H   H4    0.108100  0.391900  0.766636  0.139367
    H   H5    0.210655  0.105587  0.593622  0.256284
    H   H6    0.176031  0.947500  0.384874  0.107605
    H   H7    0.161983  0.891963  0.436859  0.078210
    H   H8    0.233364  0.891900  0.391900  0.141765
    H   H9    0.789345  0.894413  0.593622  0.267004
    H   H10   0.823969  0.052500  0.384874  0.093841
    H   H11   0.838017  0.108037  0.436859  0.071266
    H   H12   0.766636  0.108100  0.391900  0.133264
    H   H13   0.593622  0.210655  0.105587  0.264187
    H   H14   0.384874  0.176031  0.947500  0.111660
    H   H15   0.436859  0.161983  0.891963  0.084756
    H   H16   0.391900  0.233364  0.891900  0.143110
    H   H17   0.593622  0.789345  0.894413  0.274433
    H   H18   0.384874  0.823969  0.052500  0.101038
    H   H19   0.436859  0.838017  0.108037  0.077960
    H   H20   0.391900  0.766636  0.108100  0.135996
    H   H21   0.593622  0.105587  0.789345  0.270559
    H   H22   0.384874  0.947500  0.823969  0.099480
    H   H23   0.436859  0.891963  0.838017  0.081591
    H   H24   0.391900  0.891900  0.766636  0.139632
    H   H25   0.593622  0.894413  0.210655  0.267720
    H   H26   0.384874  0.052500  0.176031  0.113488
    H   H27   0.436859  0.108037  0.161983  0.080902
    H   H28   0.391900  0.108100  0.233364  0.139256
    H   H29   0.105587  0.210655  0.406378  0.256282
    H   H30   0.947500  0.176031  0.615126  0.107607
    H   H31   0.891963  0.161983  0.563141  0.078214
    H   H32   0.891900  0.233364  0.608100  0.141766
    H   H33   0.894413  0.789345  0.406378  0.266992
    H   H34   0.052500  0.823969  0.615126  0.093844
    H   H35   0.108037  0.838017  0.563141  0.071271
    H   H36   0.108100  0.766636  0.608100  0.133267
    H   H37   0.210655  0.593622  0.894413  0.264190
    H   H38   0.176031  0.384874  0.052500  0.111541
    H   H39   0.161983  0.436859  0.108037  0.084622
    H   H40   0.233364  0.391900  0.108100  0.143005
    H   H41   0.789345  0.593622  0.105587  0.274428
    H   H42   0.823969  0.384874  0.947500  0.101038
    H   H43   0.838017  0.436859  0.891963  0.077964
    H   H44   0.766636  0.391900  0.891900  0.135997
    H   H45   0.105587  0.593622  0.210655  0.270551
    H   H46   0.947500  0.384874  0.176031  0.099472
    H   H47   0.891963  0.436859  0.161983  0.081579
    H   H48   0.891900  0.391900  0.233364  0.139630
    N   N1    0.029257  0.461729  0.716763  -0.594923
    N   N2    0.283237  0.970743  0.461729  -0.610240
    N   N3    0.716763  0.029257  0.461729  -0.647127
    N   N4    0.461729  0.283237  0.970743  -0.599703
    N   N5    0.461729  0.716763  0.029257  -0.635099
    N   N6    0.461729  0.970743  0.716763  -0.640966
    N   N7    0.461729  0.029257  0.283237  -0.594968
    N   N8    0.970743  0.283237  0.538271  -0.610246
    N   N9    0.029257  0.716763  0.538271  -0.647137
    N   N10   0.283237  0.461729  0.029257  -0.599745
    N   N11   0.716763  0.461729  0.970743  -0.635099
    N   N12   0.970743  0.461729  0.283237  -0.640966
    O   O1    0.952217  0.500000  0.586469  -0.649136
    O   O2    0.921967  0.574095  0.819332  -0.434504
    O   O3    0.180668  0.078033  0.574095  -0.402662
    O   O4    0.047783  0.586469  0.500000  -0.614482
    O   O5    0.952217  0.586469  0.500000  -0.610366
    O   O6    0.819332  0.921967  0.574095  -0.421013
    O   O7    0.574095  0.180668  0.078033  -0.430531
    O   O8    0.574095  0.819332  0.921967  -0.446685
    O   O9    0.574095  0.078033  0.819332  -0.442963
    O   O10   0.413531  0.047783  0.500000  -0.648167
    O   O11   0.413531  0.952217  0.500000  -0.668595
    O   O12   0.574095  0.921967  0.180668  -0.434510
    O   O13   0.078033  0.180668  0.425905  -0.402660
    O   O14   0.500000  0.047783  0.413531  -0.671933
    O   O15   0.921967  0.819332  0.425905  -0.421005
    O   O16   0.500000  0.952217  0.413531  -0.649139
    O   O17   0.180668  0.574095  0.921967  -0.430534
    O   O18   0.586469  0.047783  0.500000  -0.614488
    O   O19   0.819332  0.574095  0.078033  -0.446688
    O   O20   0.586469  0.952217  0.500000  -0.610374
    O   O21   0.500000  0.047783  0.586469  -0.603428
    O   O22   0.500000  0.952217  0.586469  -0.615257
    O   O23   0.047783  0.500000  0.413531  -0.603429
    O   O24   0.500000  0.413531  0.047783  -0.646998
    O   O25   0.500000  0.413531  0.952217  -0.669698
    O   O26   0.413531  0.500000  0.047783  -0.669723
    O   O27   0.413531  0.500000  0.952217  -0.646982
    O   O28   0.500000  0.586469  0.047783  -0.617295
    O   O29   0.500000  0.586469  0.952217  -0.606019
    O   O30   0.952217  0.500000  0.413531  -0.615269
    O   O31   0.586469  0.500000  0.047783  -0.606037
    O   O32   0.586469  0.500000  0.952217  -0.617272
    O   O33   0.547783  0.000000  0.913531  -0.621438
    O   O34   0.452217  0.000000  0.913531  -0.629846
    O   O35   0.547783  0.913531  0.000000  -0.622744
    O   O36   0.452217  0.913531  0.000000  -0.629406
    O   O37   0.547783  0.000000  0.086469  -0.622376
    O   O38   0.452217  0.000000  0.086469  -0.633348
    O   O39   0.547783  0.086469  0.000000  -0.621212
    O   O40   0.452217  0.086469  0.000000  -0.633435
    O   O41   0.913531  0.547783  0.000000  -0.622737
    O   O42   0.047783  0.413531  0.500000  -0.648163
    O   O43   0.913531  0.452217  0.000000  -0.629397
    O   O44   0.000000  0.547783  0.913531  -0.622384
    O   O45   0.000000  0.452217  0.913531  -0.633383
    O   O46   0.086469  0.547783  0.000000  -0.621192
    O   O47   0.086469  0.452217  0.000000  -0.633409
    O   O48   0.000000  0.547783  0.086469  -0.621457
    O   O49   0.000000  0.452217  0.086469  -0.629848
    O   O50   0.952217  0.413531  0.500000  -0.668588
    O   O51   0.000000  0.913531  0.547783  -0.628368
    O   O52   0.000000  0.913531  0.452217  -0.632592
    O   O53   0.913531  0.000000  0.547783  -0.632598
    O   O54   0.913531  0.000000  0.452217  -0.628368
    O   O55   0.000000  0.086469  0.547783  -0.632774
    O   O56   0.000000  0.086469  0.452217  -0.628562
    O   O57   0.086469  0.000000  0.547783  -0.628569
    O   O58   0.086469  0.000000  0.452217  -0.632773
    O   O59   0.047783  0.500000  0.586469  -0.671923
    O   O60   0.078033  0.574095  0.180668  -0.442962
