# Generated by REPEAT Assigner based on pymatgen
data_DB13-hxg-Syn034818
_audit_creation_date              2022-05-24
_audit_creation_method            REPEAT_Assigner
_cell_length_a                    20.718300
_cell_length_b                    20.718300
_cell_length_c                    20.718300
_cell_angle_alpha                 90.000000
_cell_angle_beta                  90.000000
_cell_angle_gamma                 90.000000
_cell_volume                      8893.287904
_symmetry_space_group_name_H-M    P1
_symmetry_Int_Tables_number       1
loop_
    _symmetry_equiv_pos_site_id
    _symmetry_equiv_pos_as_xyz
    1  x,y,z
loop_
    _atom_site_type_symbol
    _atom_site_label
    _atom_site_fract_x
    _atom_site_fract_y
    _atom_site_fract_z
    _atom_type_partial_charge
    Br  Br1   0.590908  0.660408  0.341784  -0.162633
    Br  Br2   0.909092  0.839592  0.341784  -0.188659
    Br  Br3   0.341784  0.590908  0.660408  -0.166361
    Br  Br4   0.341784  0.909092  0.839592  -0.184291
    Br  Br5   0.660408  0.341784  0.590908  -0.165437
    Br  Br6   0.839592  0.341784  0.909092  -0.189055
    Br  Br7   0.409092  0.339592  0.658216  -0.162598
    Br  Br8   0.090908  0.160408  0.658216  -0.188688
    Br  Br9   0.658216  0.409092  0.339592  -0.166328
    Br  Br10  0.658216  0.090908  0.160408  -0.184293
    Br  Br11  0.339592  0.658216  0.409092  -0.165397
    Br  Br12  0.160408  0.658216  0.090908  -0.189045
    C   C1    0.850537  0.502171  0.353322  0.890599
    C   C2    0.149463  0.497829  0.646678  0.890895
    C   C3    0.000933  0.646268  0.349710  0.920513
    C   C4    0.999069  0.353733  0.650292  0.920670
    C   C5    0.853523  0.350420  0.498147  1.163578
    C   C6    0.146476  0.649579  0.501852  1.163675
    C   C7    0.714941  0.875246  0.291075  0.052540
    C   C8    0.692828  0.769605  0.262511  0.057779
    C   C9    0.694713  0.746483  0.323953  0.914245
    C   C10   0.709764  0.791602  0.372974  -0.180165
    C   C11   0.714074  0.854864  0.357136  -0.033375
    C   C12   0.683810  0.677414  0.339781  -0.892125
    C   C13   0.728122  0.938040  0.273978  0.399775
    C   C14   0.708380  0.993436  0.307530  -0.491147
    C   C15   0.738374  0.054125  0.288013  0.002658
    C   C16   0.787356  0.057146  0.238652  -0.027382
    C   C17   0.799691  0.001416  0.204229  -0.393314
    C   C18   0.766775  0.945842  0.222215  0.135184
    C   C19   0.850537  0.997829  0.146678  1.070991
    C   C20   0.785059  0.624754  0.291075  0.179689
    C   C21   0.807172  0.730395  0.262511  0.292343
    C   C22   0.805287  0.753517  0.323953  0.409918
    C   C23   0.790236  0.708398  0.372974  -0.396314
    C   C24   0.785926  0.645136  0.357136  -0.021211
    C   C25   0.816190  0.822586  0.339781  -0.601718
    C   C26   0.771878  0.561960  0.273978  0.306220
    C   C27   0.791620  0.506564  0.307530  -0.341955
    C   C28   0.761626  0.445875  0.288013  -0.241228
    C   C29   0.712644  0.442854  0.238652  0.595508
    C   C30   0.700309  0.498584  0.204229  -0.595603
    C   C31   0.733225  0.554158  0.222215  -0.091888
    C   C32   0.291075  0.714941  0.875246  0.035150
    C   C33   0.262511  0.692828  0.769605  0.045252
    C   C34   0.323953  0.694713  0.746483  0.903793
    C   C35   0.372974  0.709764  0.791602  -0.184323
    C   C36   0.357136  0.714074  0.854864  -0.005367
    C   C37   0.149463  0.002171  0.853322  1.071197
    C   C38   0.339781  0.683810  0.677414  -0.872109
    C   C39   0.273978  0.728122  0.938040  0.439795
    C   C40   0.307530  0.708380  0.993436  -0.532475
    C   C41   0.288013  0.738374  0.054125  0.021505
    C   C42   0.238652  0.787356  0.057146  -0.010331
    C   C43   0.204229  0.799691  0.001416  -0.438847
    C   C44   0.222215  0.766775  0.945842  0.140073
    C   C45   0.291075  0.785059  0.624754  0.168358
    C   C46   0.262511  0.807172  0.730395  0.303525
    C   C47   0.323953  0.805287  0.753517  0.421899
    C   C48   0.372974  0.790236  0.708398  -0.400123
    C   C49   0.357136  0.785926  0.645136  -0.001397
    C   C50   0.339781  0.816190  0.822586  -0.597283
    C   C51   0.273978  0.771878  0.561960  0.347358
    C   C52   0.307530  0.791620  0.506564  -0.380227
    C   C53   0.000933  0.853732  0.150290  1.130534
    C   C54   0.288013  0.761626  0.445875  -0.243094
    C   C55   0.238652  0.712644  0.442854  0.635003
    C   C56   0.204229  0.700309  0.498584  -0.644179
    C   C57   0.222215  0.733225  0.554158  -0.087198
    C   C58   0.875246  0.291075  0.714941  0.066600
    C   C59   0.769605  0.262511  0.692828  0.059900
    C   C60   0.746483  0.323953  0.694713  0.925016
    C   C61   0.791602  0.372974  0.709764  -0.198011
    C   C62   0.854864  0.357136  0.714074  -0.012224
    C   C63   0.677414  0.339781  0.683810  -0.862700
    C   C64   0.938040  0.273978  0.728122  0.401932
    C   C65   0.993436  0.307530  0.708380  -0.515033
    C   C66   0.054125  0.288013  0.738374  0.017021
    C   C67   0.057146  0.238652  0.787356  -0.016550
    C   C68   0.001416  0.204229  0.799691  -0.431380
    C   C69   0.945842  0.222215  0.766775  0.154441
    C   C70   0.999069  0.146267  0.849708  1.131210
    C   C71   0.624754  0.291075  0.785059  0.206557
    C   C72   0.730395  0.262511  0.807172  0.299939
    C   C73   0.753517  0.323953  0.805287  0.402682
    C   C74   0.708398  0.372974  0.790236  -0.407185
    C   C75   0.645136  0.357136  0.785926  -0.012464
    C   C76   0.822586  0.339781  0.816190  -0.575776
    C   C77   0.561960  0.273978  0.771878  0.309804
    C   C78   0.506564  0.307530  0.791620  -0.360249
    C   C79   0.445875  0.288013  0.761626  -0.231141
    C   C80   0.442854  0.238652  0.712644  0.597679
    C   C81   0.498584  0.204229  0.700309  -0.618956
    C   C82   0.554158  0.222215  0.733225  -0.084892
    C   C83   0.285059  0.124754  0.708925  0.052251
    C   C84   0.307172  0.230395  0.737489  0.057257
    C   C85   0.305287  0.253517  0.676047  0.914374
    C   C86   0.290236  0.208398  0.627026  -0.180136
    C   C87   0.285926  0.145136  0.642864  -0.033197
    C   C88   0.316190  0.322586  0.660219  -0.892423
    C   C89   0.853523  0.149580  0.001853  1.127303
    C   C90   0.271878  0.061960  0.726022  0.399760
    C   C91   0.291620  0.006564  0.692470  -0.490965
    C   C92   0.261626  0.945875  0.711987  0.002544
    C   C93   0.212644  0.942854  0.761348  -0.027397
    C   C94   0.200309  0.998584  0.795771  -0.393177
    C   C95   0.233225  0.054158  0.777785  0.135112
    C   C96   0.214941  0.375246  0.708925  0.180153
    C   C97   0.192828  0.269605  0.737489  0.292493
    C   C98   0.194713  0.246483  0.676047  0.409865
    C   C99   0.209764  0.291602  0.627026  -0.396021
    C   C100  0.214074  0.354864  0.642864  -0.021251
    C   C101  0.183810  0.177414  0.660219  -0.601901
    C   C102  0.228122  0.438040  0.726022  0.305867
    C   C103  0.208380  0.493436  0.692470  -0.341764
    C   C104  0.238374  0.554125  0.711987  -0.241270
    C   C105  0.146476  0.850421  0.998148  1.127453
    C   C106  0.287356  0.557146  0.761348  0.595502
    C   C107  0.299691  0.501416  0.795771  -0.595442
    C   C108  0.266775  0.445842  0.777785  -0.091931
    C   C109  0.708925  0.285059  0.124754  0.035455
    C   C110  0.737489  0.307172  0.230395  0.045462
    C   C111  0.676047  0.305287  0.253517  0.903494
    C   C112  0.627026  0.290236  0.208398  -0.183923
    C   C113  0.642864  0.285926  0.145136  -0.005792
    C   C114  0.660219  0.316190  0.322586  -0.872265
    C   C115  0.726022  0.271878  0.061960  0.439724
    C   C116  0.692470  0.291620  0.006564  -0.532228
    C   C117  0.711987  0.261626  0.945875  0.021229
    C   C118  0.761348  0.212644  0.942854  -0.010407
    C   C119  0.795771  0.200309  0.998584  -0.438432
    C   C120  0.777785  0.233225  0.054158  0.139866
    C   C121  0.708925  0.214941  0.375246  0.168663
    C   C122  0.737489  0.192828  0.269605  0.303663
    C   C123  0.676047  0.194713  0.246483  0.421779
    C   C124  0.627026  0.209764  0.291602  -0.399954
    C   C125  0.642864  0.214074  0.354864  -0.001690
    C   C126  0.660219  0.183810  0.177414  -0.597367
    C   C127  0.726022  0.228122  0.438040  0.347313
    C   C128  0.692470  0.208380  0.493436  -0.380029
    C   C129  0.711987  0.238374  0.554125  -0.243109
    C   C130  0.761348  0.287356  0.557146  0.634728
    C   C131  0.795771  0.299691  0.501416  -0.643722
    C   C132  0.777785  0.266775  0.445842  -0.087458
    C   C133  0.124754  0.708925  0.285059  0.066925
    C   C134  0.230395  0.737489  0.307172  0.059823
    C   C135  0.253517  0.676047  0.305287  0.924687
    C   C136  0.208398  0.627026  0.290236  -0.197435
    C   C137  0.145136  0.642864  0.285926  -0.012571
    C   C138  0.322586  0.660219  0.316190  -0.862916
    C   C139  0.061960  0.726022  0.271878  0.401538
    C   C140  0.006564  0.692470  0.291620  -0.514369
    C   C141  0.945875  0.711987  0.261626  0.016288
    C   C142  0.942854  0.761348  0.212644  -0.016619
    C   C143  0.998584  0.795771  0.200309  -0.430772
    C   C144  0.054158  0.777785  0.233225  0.154261
    C   C145  0.375246  0.708925  0.214941  0.207084
    C   C146  0.269605  0.737489  0.192828  0.299990
    C   C147  0.246483  0.676047  0.194713  0.402463
    C   C148  0.291602  0.627026  0.209764  -0.406905
    C   C149  0.354864  0.642864  0.214074  -0.012635
    C   C150  0.177414  0.660219  0.183810  -0.575898
    C   C151  0.438040  0.726022  0.228122  0.309415
    C   C152  0.493436  0.692470  0.208380  -0.359637
    C   C153  0.554125  0.711987  0.238374  -0.231450
    C   C154  0.557146  0.761348  0.287356  0.597438
    C   C155  0.501416  0.795771  0.299691  -0.618372
    C   C156  0.445842  0.777785  0.266775  -0.085103
    C   C157  0.649463  0.502171  0.146678  1.112206
    C   C158  0.350537  0.497829  0.853322  1.112423
    C   C159  0.499067  0.646268  0.150290  0.936112
    C   C160  0.500931  0.353733  0.849708  0.936558
    C   C161  0.646477  0.350420  0.001853  0.907511
    C   C162  0.353524  0.649579  0.998148  0.907396
    C   C163  0.649463  0.997829  0.353322  0.892965
    C   C164  0.350537  0.002171  0.646678  0.893196
    C   C165  0.499067  0.853732  0.349710  1.158266
    C   C166  0.500931  0.146267  0.650292  1.158951
    C   C167  0.646477  0.149580  0.498147  0.926158
    C   C168  0.353524  0.850421  0.501852  0.926030
    H   H1    0.681897  0.739394  0.217986  0.052161
    H   H2    0.708609  0.783192  0.423237  0.033145
    H   H3    0.720938  0.891571  0.392926  0.016135
    H   H4    0.703735  0.664515  0.385948  0.307474
    H   H5    0.699228  0.644513  0.300772  0.420513
    H   H6    0.732503  0.097205  0.319712  0.059144
    H   H7    0.813379  0.100849  0.227547  0.053661
    H   H8    0.783727  0.904205  0.192530  -0.042225
    H   H9    0.818103  0.760606  0.217986  0.145681
    H   H10   0.791391  0.716808  0.423237  0.137704
    H   H11   0.779062  0.608429  0.392926  0.019821
    H   H12   0.796265  0.835485  0.385948  0.288684
    H   H13   0.800772  0.855487  0.300772  0.206459
    H   H14   0.767497  0.402795  0.319712  0.122020
    H   H15   0.686621  0.399151  0.227547  -0.239456
    H   H16   0.716273  0.595795  0.192530  0.060207
    H   H17   0.217986  0.681897  0.739394  0.059410
    H   H18   0.423237  0.708609  0.783192  0.037476
    H   H19   0.392926  0.720938  0.891571  0.011477
    H   H20   0.385948  0.703735  0.664515  0.296257
    H   H21   0.300772  0.699228  0.644513  0.403743
    H   H22   0.319712  0.732503  0.097205  0.051800
    H   H23   0.227547  0.813379  0.100849  0.040466
    H   H24   0.192530  0.783727  0.904205  -0.036982
    H   H25   0.217986  0.818103  0.760606  0.142022
    H   H26   0.423237  0.791391  0.716808  0.141332
    H   H27   0.392926  0.779062  0.608429  0.017285
    H   H28   0.385948  0.796265  0.835485  0.277845
    H   H29   0.300772  0.800772  0.855487  0.197646
    H   H30   0.319712  0.767497  0.402795  0.118081
    H   H31   0.227547  0.686621  0.399151  -0.276909
    H   H32   0.192530  0.716273  0.595795  0.064509
    H   H33   0.739394  0.217986  0.681897  0.053252
    H   H34   0.783192  0.423237  0.708609  0.037688
    H   H35   0.891571  0.392926  0.720938  0.023674
    H   H36   0.664515  0.385948  0.703735  0.292799
    H   H37   0.644513  0.300772  0.699228  0.397966
    H   H38   0.097205  0.319712  0.732503  0.054264
    H   H39   0.100849  0.227547  0.813379  0.040629
    H   H40   0.904205  0.192530  0.783727  -0.037994
    H   H41   0.760606  0.217986  0.818103  0.148273
    H   H42   0.716808  0.423237  0.791391  0.143830
    H   H43   0.608429  0.392926  0.779062  0.028627
    H   H44   0.835485  0.385948  0.796265  0.275081
    H   H45   0.855487  0.300772  0.800772  0.187674
    H   H46   0.402795  0.319712  0.767497  0.111115
    H   H47   0.399151  0.227547  0.686621  -0.259615
    H   H48   0.595795  0.192530  0.716273  0.065881
    H   H49   0.318103  0.260606  0.782014  0.052282
    H   H50   0.291391  0.216808  0.576763  0.033113
    H   H51   0.279062  0.108429  0.607074  0.016047
    H   H52   0.296265  0.335485  0.614052  0.307543
    H   H53   0.300772  0.355487  0.699228  0.420601
    H   H54   0.267497  0.902795  0.680288  0.059181
    H   H55   0.186621  0.899151  0.772453  0.053677
    H   H56   0.216273  0.095795  0.807470  -0.042258
    H   H57   0.181897  0.239394  0.782014  0.145603
    H   H58   0.208609  0.283192  0.576763  0.137596
    H   H59   0.220938  0.391571  0.607074  0.019718
    H   H60   0.203735  0.164515  0.614052  0.288747
    H   H61   0.199228  0.144513  0.699228  0.206582
    H   H62   0.232503  0.597205  0.680288  0.121964
    H   H63   0.313379  0.600849  0.772453  -0.239454
    H   H64   0.283727  0.404205  0.807470  0.060165
    H   H65   0.782014  0.318103  0.260606  0.059357
    H   H66   0.576763  0.291391  0.216808  0.037411
    H   H67   0.607074  0.279062  0.108429  0.011526
    H   H68   0.614052  0.296265  0.335485  0.296335
    H   H69   0.699228  0.300772  0.355487  0.403794
    H   H70   0.680288  0.267497  0.902795  0.051944
    H   H71   0.772453  0.186621  0.899151  0.040467
    H   H72   0.807470  0.216273  0.095795  -0.036941
    H   H73   0.782014  0.181897  0.239394  0.141984
    H   H74   0.576763  0.208609  0.283192  0.141315
    H   H75   0.607074  0.220938  0.391571  0.017294
    H   H76   0.614052  0.203735  0.164515  0.277878
    H   H77   0.699228  0.199228  0.144513  0.197716
    H   H78   0.680288  0.232503  0.597205  0.118026
    H   H79   0.772453  0.313379  0.600849  -0.276841
    H   H80   0.807470  0.283727  0.404205  0.064547
    H   H81   0.260606  0.782014  0.318103  0.053278
    H   H82   0.216808  0.576763  0.291391  0.037578
    H   H83   0.108429  0.607074  0.279062  0.023593
    H   H84   0.335485  0.614052  0.296265  0.292888
    H   H85   0.355487  0.699228  0.300772  0.398034
    H   H86   0.902795  0.680288  0.267497  0.054700
    H   H87   0.899151  0.772453  0.186621  0.040605
    H   H88   0.095795  0.807470  0.216273  -0.037964
    H   H89   0.239394  0.782014  0.181897  0.148257
    H   H90   0.283192  0.576763  0.208609  0.143776
    H   H91   0.391571  0.607074  0.220938  0.028501
    H   H92   0.164515  0.614052  0.203735  0.275132
    H   H93   0.144513  0.699228  0.199228  0.187794
    H   H94   0.597205  0.680288  0.232503  0.111216
    H   H95   0.600849  0.772453  0.313379  -0.259670
    H   H96   0.404205  0.807470  0.283727  0.065893
    N   N1    0.707579  0.830763  0.243839  -0.602107
    N   N2    0.792421  0.669237  0.243839  -0.714938
    N   N3    0.243839  0.707579  0.830763  -0.607272
    N   N4    0.243839  0.792421  0.669237  -0.728298
    N   N5    0.830763  0.243839  0.707579  -0.620069
    N   N6    0.669237  0.243839  0.792421  -0.735368
    N   N7    0.292421  0.169237  0.756161  -0.601837
    N   N8    0.207579  0.330763  0.756161  -0.714963
    N   N9    0.756161  0.292421  0.169237  -0.607383
    N   N10   0.756161  0.207579  0.330763  -0.728383
    N   N11   0.169237  0.756161  0.292421  -0.620048
    N   N12   0.330763  0.756161  0.207579  -0.735425
    O   O1    0.060928  0.959842  0.060649  -1.065523
    O   O2    0.060928  0.540158  0.439351  -1.039123
    O   O3    0.939071  0.459841  0.560648  -1.038825
    O   O4    0.908962  0.498107  0.333822  -0.654096
    O   O5    0.831710  0.501070  0.410018  -0.425395
    O   O6    0.091039  0.501893  0.666179  -0.654191
    O   O7    0.168291  0.498931  0.589983  -0.425421
    O   O8    0.997155  0.587314  0.331998  -0.500595
    O   O9    0.004328  0.664168  0.406317  -0.558146
    O   O10   0.939071  0.040159  0.939352  -1.065279
    O   O11   0.002843  0.412685  0.668000  -0.500719
    O   O12   0.995674  0.335833  0.593685  -0.557974
    O   O13   0.834824  0.409262  0.494233  -0.649564
    O   O14   0.911434  0.334059  0.502389  -0.634513
    O   O15   0.165175  0.590737  0.505766  -0.649535
    O   O16   0.088568  0.665942  0.497613  -0.634160
    O   O17   0.908962  0.001893  0.166178  -0.635795
    O   O18   0.831710  0.998930  0.089982  -0.586851
    O   O19   0.091039  0.998107  0.833821  -0.635912
    O   O20   0.168291  0.001069  0.910017  -0.586864
    O   O21   0.997155  0.912686  0.168002  -0.643550
    O   O22   0.004328  0.835832  0.093683  -0.627927
    O   O23   0.002843  0.087315  0.832000  -0.643765
    O   O24   0.995674  0.164167  0.906315  -0.627964
    O   O25   0.834824  0.090738  0.005767  -0.645103
    O   O26   0.911434  0.165941  0.997611  -0.611695
    O   O27   0.165175  0.909263  0.994234  -0.645073
    O   O28   0.088568  0.834058  0.002387  -0.611363
    O   O29   0.559772  0.559637  0.043615  -0.994476
    O   O30   0.440226  0.440364  0.956384  -0.994419
    O   O31   0.539752  0.438540  0.059066  -1.026426
    O   O32   0.460246  0.561461  0.940933  -1.026194
    O   O33   0.439072  0.540158  0.060649  -1.029267
    O   O34   0.560929  0.459841  0.939352  -1.029040
    O   O35   0.591038  0.498107  0.166178  -0.647654
    O   O36   0.668290  0.501070  0.089982  -0.614887
    O   O37   0.408961  0.501893  0.833821  -0.647762
    O   O38   0.331709  0.498931  0.910017  -0.614894
    O   O39   0.502845  0.587314  0.168002  -0.486469
    O   O40   0.495672  0.664168  0.093683  -0.652542
    O   O41   0.497157  0.412685  0.832000  -0.486687
    O   O42   0.504326  0.335833  0.906315  -0.652470
    O   O43   0.665176  0.409262  0.005767  -0.573353
    O   O44   0.588566  0.334059  0.997611  -0.453186
    O   O45   0.334825  0.590737  0.994234  -0.573259
    O   O46   0.411432  0.665942  0.002387  -0.452783
    O   O47   0.940228  0.940363  0.043615  -1.068454
    O   O48   0.559772  0.940363  0.456385  -1.034536
    O   O49   0.440226  0.059636  0.543616  -1.034512
    O   O50   0.539752  0.061460  0.440934  -1.021899
    O   O51   0.460246  0.938539  0.559067  -1.021634
    O   O52   0.059774  0.059636  0.956384  -1.068434
    O   O53   0.439072  0.959842  0.439351  -0.998395
    O   O54   0.560929  0.040159  0.560648  -0.998162
    O   O55   0.591038  0.001893  0.333822  -0.572381
    O   O56   0.668290  0.998930  0.410018  -0.442312
    O   O57   0.408961  0.998107  0.666179  -0.572496
    O   O58   0.331709  0.001069  0.589983  -0.442313
    O   O59   0.502845  0.912686  0.331998  -0.664609
    O   O60   0.495672  0.835832  0.406317  -0.629655
    O   O61   0.960248  0.061460  0.059066  -1.056364
    O   O62   0.497157  0.087315  0.668000  -0.664884
    O   O63   0.504326  0.164167  0.593685  -0.629794
    O   O64   0.665176  0.090738  0.494233  -0.664974
    O   O65   0.588566  0.165941  0.502389  -0.445060
    O   O66   0.334825  0.909263  0.505766  -0.664861
    O   O67   0.411432  0.834058  0.497613  -0.444693
    O   O68   0.039754  0.938539  0.940933  -1.056128
    O   O69   0.940228  0.559637  0.456385  -1.028741
    O   O70   0.059774  0.440364  0.543616  -1.028703
    O   O71   0.960248  0.438540  0.440934  -0.987367
    O   O72   0.039754  0.561461  0.559067  -0.987141
    Ti  Ti1   0.994675  0.994342  0.112540  1.512695
    Ti  Ti2   0.005323  0.005658  0.887461  1.512495
    Ti  Ti3   0.887874  0.006625  0.008961  1.477808
    Ti  Ti4   0.112128  0.993374  0.991037  1.477867
    Ti  Ti5   0.505325  0.505658  0.112540  1.397543
    Ti  Ti6   0.494677  0.494342  0.887461  1.397334
    Ti  Ti7   0.612126  0.493375  0.008961  1.434850
    Ti  Ti8   0.387872  0.506626  0.991037  1.434883
    Ti  Ti9   0.492541  0.612420  0.008717  1.414805
    Ti  Ti10  0.507457  0.387580  0.991281  1.414895
    Ti  Ti11  0.007459  0.887580  0.008717  1.485345
    Ti  Ti12  0.992543  0.112420  0.991281  1.485453
    Ti  Ti13  0.505325  0.994342  0.387460  1.466199
    Ti  Ti14  0.494677  0.005658  0.612539  1.466004
    Ti  Ti15  0.612126  0.006625  0.491039  1.413901
    Ti  Ti16  0.387872  0.993374  0.508963  1.413948
    Ti  Ti17  0.492541  0.887580  0.491283  1.362531
    Ti  Ti18  0.507457  0.112420  0.508719  1.362696
    Ti  Ti19  0.994675  0.505658  0.387460  1.451046
    Ti  Ti20  0.005323  0.494342  0.612539  1.450783
    Ti  Ti21  0.887874  0.493375  0.491039  1.365821
    Ti  Ti22  0.112128  0.506626  0.508963  1.365907
    Ti  Ti23  0.007459  0.612420  0.491283  1.444902
    Ti  Ti24  0.992543  0.387580  0.508719  1.444972
