# Generated by REPEAT Assigner based on pymatgen
data_DB13-cds-Syn025212
_audit_creation_date              2022-05-24
_audit_creation_method            REPEAT_Assigner
_cell_length_a                    14.652000
_cell_length_b                    14.652000
_cell_length_c                    29.304100
_cell_angle_alpha                 90.000000
_cell_angle_beta                  90.000000
_cell_angle_gamma                 90.000000
_cell_volume                      6291.036540
_symmetry_space_group_name_H-M    P1
_symmetry_Int_Tables_number       1
loop_
    _symmetry_equiv_pos_site_id
    _symmetry_equiv_pos_as_xyz
    1  x,y,z
loop_
    _atom_site_type_symbol
    _atom_site_label
    _atom_site_fract_x
    _atom_site_fract_y
    _atom_site_fract_z
    _atom_type_partial_charge
    Cu  Cu1  0.909389  0.000000  0.000000  0.918034
    Cu  Cu2  0.090611  0.000000  0.000000  1.029913
    C   C1   0.000000  0.000000  0.913938  0.817332
    O   O1   0.072109  0.000000  0.934754  -0.621183
    O   O2   0.927891  0.000000  0.934754  -0.636264
    C   C2   0.000000  0.827877  0.000000  0.935748
    O   O3   0.072109  0.869509  0.000000  -0.704934
    O   O4   0.927891  0.869509  0.000000  -0.555017
    C   C3   0.000000  0.000000  0.086062  0.790242
    O   O5   0.072109  0.000000  0.065246  -0.665232
    O   O6   0.927891  0.000000  0.065246  -0.617433
    C   C4   0.000000  0.172123  0.000000  0.780335
    O   O7   0.072109  0.130491  0.000000  -0.651312
    O   O8   0.927891  0.130491  0.000000  -0.538807
    Cu  Cu3  0.000000  0.909389  0.500000  0.948222
    Cu  Cu4  0.000000  0.090611  0.500000  1.007209
    C   C5   0.000000  0.000000  0.413938  0.838611
    O   O9   0.000000  0.072109  0.434754  -0.605663
    O   O10  0.000000  0.927891  0.434754  -0.647292
    C   C6   0.172123  0.000000  0.500000  0.937320
    O   O11  0.130491  0.072109  0.500000  -0.704563
    O   O12  0.130491  0.927891  0.500000  -0.564162
    C   C7   0.000000  0.000000  0.586062  0.911043
    O   O13  0.000000  0.072109  0.565246  -0.653854
    O   O14  0.000000  0.927891  0.565246  -0.675789
    C   C8   0.827877  0.000000  0.500000  0.764073
    O   O15  0.869509  0.072109  0.500000  -0.658555
    O   O16  0.869509  0.927891  0.500000  -0.559253
    S   S1   0.960932  0.978928  0.821269  0.031084
    C   C9   0.053987  0.969630  0.781703  0.027327
    C   C10  0.133194  0.957500  0.808480  -0.261577
    C   C11  0.119561  0.953278  0.856366  -0.006550
    C   C12  0.031405  0.975762  0.866393  -0.157991
    H   H1   0.203322  0.955504  0.789648  0.133607
    H   H2   0.177792  0.950102  0.878620  0.131511
    C   C13  0.029833  0.995945  0.634825  -0.138108
    C   C14  0.994693  0.056822  0.664861  -0.113702
    H   H3   0.941474  0.101887  0.655002  0.105549
    C   C15  0.001643  0.046015  0.711099  -0.026319
    H   H4   0.958299  0.086965  0.733782  0.074139
    C   C16  0.057730  0.982049  0.730775  0.026681
    C   C17  0.105009  0.920488  0.702254  -0.016255
    C   C18  0.084804  0.926047  0.654856  -0.115820
    H   H5   0.107053  0.872140  0.631424  0.158160
    C   C19  0.173744  0.843084  0.716754  0.376884
    H   H6   0.183413  0.821179  0.752592  0.037439
    O   O17  0.201584  0.798416  0.685067  -0.428221
    S   S2   0.021072  0.960932  0.321269  0.028908
    C   C20  0.030370  0.053987  0.281703  0.024235
    C   C21  0.042500  0.133194  0.308480  -0.237610
    C   C22  0.046722  0.119561  0.356366  -0.018876
    C   C23  0.024238  0.031405  0.366393  -0.172407
    H   H7   0.044496  0.203322  0.289648  0.129139
    H   H8   0.049898  0.177792  0.378620  0.130396
    C   C24  0.004055  0.029833  0.134825  -0.023195
    C   C25  0.943178  0.994693  0.164861  -0.175018
    H   H9   0.898113  0.941474  0.155002  0.114290
    C   C26  0.953985  0.001643  0.211099  -0.021031
    H   H10  0.913035  0.958299  0.233782  0.077999
    C   C27  0.017951  0.057730  0.230775  0.032602
    C   C28  0.079512  0.105009  0.202254  -0.067732
    C   C29  0.073953  0.084804  0.154856  -0.098758
    H   H11  0.127860  0.107053  0.131424  0.162123
    C   C30  0.156916  0.173744  0.216754  0.419293
    H   H12  0.178821  0.183413  0.252592  0.025860
    O   O18  0.201584  0.201584  0.185067  -0.442046
    S   S3   0.012725  0.642537  0.978737  0.049758
    C   C31  0.940351  0.563405  0.008350  0.040681
    C   C32  0.875766  0.616960  0.032065  -0.209143
    C   C33  0.882420  0.712731  0.025753  -0.023776
    C   C34  0.960654  0.732787  0.002534  -0.246456
    H   H13  0.824766  0.579296  0.056154  0.125387
    H   H14  0.838999  0.757241  0.045217  0.122378
    C   C35  0.976038  0.269650  0.009114  -0.129447
    C   C36  0.043932  0.329722  0.018214  -0.046359
    H   H15  0.113429  0.310004  0.015330  0.093715
    C   C37  0.031376  0.422198  0.016850  -0.079241
    H   H16  0.090980  0.467564  0.016004  0.087981
    C   C38  0.946486  0.461550  0.014064  -0.001197
    C   C39  0.869524  0.404507  0.009014  -0.026536
    C   C40  0.887742  0.309711  0.003837  -0.051342
    H   H17  0.833891  0.262849  0.992644  0.113675
    C   C41  0.766188  0.433507  0.005949  0.383303
    H   H18  0.743862  0.505183  0.001624  0.031774
    O   O19  0.714917  0.370135  0.000000  -0.419480
    S   S4   0.357463  0.012725  0.478737  0.044475
    C   C42  0.436595  0.940351  0.508350  0.040731
    C   C43  0.383040  0.875766  0.532065  -0.200510
    C   C44  0.287269  0.882420  0.525753  -0.037489
    C   C45  0.267213  0.960654  0.502534  -0.240631
    H   H19  0.420704  0.824766  0.556154  0.127079
    H   H20  0.242759  0.838999  0.545217  0.136971
    C   C46  0.730350  0.976038  0.509114  -0.089703
    C   C47  0.670278  0.043932  0.518214  -0.091494
    H   H21  0.689996  0.113429  0.515330  0.105233
    C   C48  0.577802  0.031376  0.516850  -0.057915
    H   H22  0.532436  0.090980  0.516004  0.082089
    C   C49  0.538450  0.946486  0.514064  -0.005202
    C   C50  0.595493  0.869524  0.509014  -0.026832
    C   C51  0.690289  0.887742  0.503837  -0.067975
    H   H23  0.737151  0.833891  0.492644  0.125023
    C   C52  0.566493  0.766188  0.505949  0.388761
    H   H24  0.494817  0.743862  0.501624  0.030504
    O   O20  0.629865  0.714917  0.500000  -0.423569
