# Generated by REPEAT Assigner based on pymatgen
data_DB13-hxg-Syn030124
_audit_creation_date              2022-05-24
_audit_creation_method            REPEAT_Assigner
_cell_length_a                    25.446900
_cell_length_b                    25.446900
_cell_length_c                    25.446900
_cell_angle_alpha                 90.000000
_cell_angle_beta                  90.000000
_cell_angle_gamma                 90.000000
_cell_volume                      16478.005725
_symmetry_space_group_name_H-M    P1
_symmetry_Int_Tables_number       1
loop_
    _symmetry_equiv_pos_site_id
    _symmetry_equiv_pos_as_xyz
    1  x,y,z
loop_
    _atom_site_type_symbol
    _atom_site_label
    _atom_site_fract_x
    _atom_site_fract_y
    _atom_site_fract_z
    _atom_type_partial_charge
    Ti  Ti1   0.995665  0.995394  0.091628  1.426019
    Ti  Ti2   0.004334  0.004607  0.908373  1.426046
    Ti  Ti3   0.908709  0.005394  0.007296  1.400865
    Ti  Ti4   0.091292  0.994606  0.992702  1.400970
    Ti  Ti5   0.006073  0.908469  0.007097  1.378941
    Ti  Ti6   0.993929  0.091530  0.992901  1.378771
    O   O1    0.951335  0.951445  0.035510  -0.991271
    O   O2    0.048667  0.048554  0.964489  -0.991253
    O   O3    0.967634  0.050040  0.048090  -0.977746
    O   O4    0.032367  0.949960  0.951909  -0.978093
    O   O5    0.049606  0.967304  0.049379  -1.002354
    O   O6    0.950393  0.032697  0.950622  -1.002369
    O   O7    0.925879  0.001541  0.135299  -0.582843
    O   O8    0.862982  0.999129  0.073262  -0.584101
    C   C1    0.878310  0.998232  0.119423  0.997255
    O   O9    0.074122  0.998458  0.864700  -0.582788
    O   O10   0.137019  0.000871  0.926738  -0.584109
    C   C2    0.121690  0.001768  0.880577  0.997349
    O   O11   0.997684  0.928911  0.136784  -0.566238
    O   O12   0.003524  0.866338  0.076275  -0.507212
    C   C3    0.000759  0.880912  0.122363  0.867582
    O   O13   0.002315  0.071090  0.863217  -0.566329
    O   O14   0.996478  0.133661  0.923724  -0.507186
    C   C4    0.999242  0.119088  0.877635  0.867634
    O   O15   0.865517  0.073877  0.004696  -0.522872
    O   O16   0.927891  0.135106  0.998055  -0.534089
    C   C5    0.880741  0.121785  0.001509  0.851459
    O   O17   0.134482  0.926124  0.995306  -0.522871
    O   O18   0.072110  0.864894  0.001943  -0.534013
    C   C6    0.119258  0.878216  0.998492  0.851291
    Ti  Ti7   0.504335  0.504606  0.091628  1.426433
    Ti  Ti8   0.495666  0.495393  0.908373  1.426614
    Ti  Ti9   0.591291  0.494606  0.007296  1.450927
    Ti  Ti10  0.408708  0.505394  0.992702  1.450784
    Ti  Ti11  0.493927  0.591531  0.007097  1.393595
    Ti  Ti12  0.506071  0.408470  0.992901  1.393278
    O   O19   0.548665  0.548555  0.035510  -0.994166
    O   O20   0.451333  0.451446  0.964489  -0.994104
    O   O21   0.532366  0.449960  0.048090  -1.012155
    O   O22   0.467633  0.550040  0.951909  -1.012474
    O   O23   0.450394  0.532696  0.049379  -1.051649
    O   O24   0.549607  0.467303  0.950622  -1.051663
    O   O25   0.574121  0.498459  0.135299  -0.575364
    O   O26   0.637018  0.500871  0.073262  -0.572745
    C   C7    0.621690  0.501768  0.119423  0.910589
    O   O27   0.425878  0.501542  0.864700  -0.575327
    O   O28   0.362981  0.499129  0.926738  -0.572780
    C   C8    0.378310  0.498232  0.880577  0.910788
    O   O29   0.502316  0.571089  0.136784  -0.556613
    O   O30   0.496476  0.633662  0.076275  -0.617066
    C   C9    0.499241  0.619088  0.122363  1.112777
    O   O31   0.497685  0.428910  0.863217  -0.556701
    O   O32   0.503522  0.366339  0.923724  -0.617075
    C   C10   0.500758  0.380912  0.877635  1.112876
    O   O33   0.634483  0.426123  0.004696  -0.554628
    O   O34   0.572109  0.364894  0.998055  -0.485171
    C   C11   0.619259  0.378215  0.001509  0.930435
    O   O35   0.365518  0.573876  0.995306  -0.554614
    O   O36   0.427890  0.635106  0.001943  -0.485145
    C   C12   0.380742  0.621784  0.998492  0.930341
    Ti  Ti13  0.504335  0.995394  0.408372  1.479461
    Ti  Ti14  0.495666  0.004607  0.591627  1.479552
    Ti  Ti15  0.591291  0.005394  0.492704  1.406734
    Ti  Ti16  0.408708  0.994606  0.507298  1.406676
    Ti  Ti17  0.493927  0.908469  0.492903  1.389988
    Ti  Ti18  0.506071  0.091530  0.507099  1.389741
    O   O37   0.548665  0.951445  0.464490  -1.020190
    O   O38   0.451333  0.048554  0.535511  -1.020158
    O   O39   0.532366  0.050040  0.451910  -1.031203
    O   O40   0.467633  0.949960  0.548091  -1.031489
    O   O41   0.450394  0.967304  0.450621  -0.993936
    O   O42   0.549607  0.032697  0.549378  -0.993941
    O   O43   0.574121  0.001541  0.364701  -0.579333
    O   O44   0.637018  0.999129  0.426738  -0.487417
    C   C13   0.621690  0.998232  0.380577  0.962081
    O   O45   0.425878  0.998458  0.635300  -0.579309
    O   O46   0.362981  0.000871  0.573262  -0.487452
    C   C14   0.378310  0.001768  0.619423  0.962239
    O   O47   0.502316  0.928911  0.363216  -0.576781
    O   O48   0.496476  0.866338  0.423725  -0.512187
    C   C15   0.499241  0.880912  0.377637  0.824591
    O   O49   0.497685  0.071090  0.636783  -0.576835
    O   O50   0.503522  0.133661  0.576276  -0.512172
    C   C16   0.500758  0.119088  0.622365  0.824559
    O   O51   0.634483  0.073877  0.495304  -0.628403
    O   O52   0.572109  0.135106  0.501945  -0.524255
    C   C17   0.619259  0.121785  0.498491  1.078079
    O   O53   0.365518  0.926124  0.504694  -0.628380
    O   O54   0.427890  0.864894  0.498057  -0.524265
    C   C18   0.380742  0.878216  0.501508  1.078033
    Ti  Ti19  0.995665  0.504606  0.408372  1.440099
    Ti  Ti20  0.004334  0.495393  0.591627  1.440175
    Ti  Ti21  0.908709  0.494606  0.492704  1.399883
    Ti  Ti22  0.091292  0.505394  0.507298  1.399918
    Ti  Ti23  0.006073  0.591531  0.492903  1.454611
    Ti  Ti24  0.993929  0.408470  0.507099  1.454402
    O   O55   0.951335  0.548555  0.464490  -1.057821
    O   O56   0.048667  0.451446  0.535511  -1.057786
    O   O57   0.967634  0.449960  0.451910  -0.982005
    O   O58   0.032367  0.550040  0.548091  -0.982397
    O   O59   0.049606  0.532696  0.450621  -1.008939
    O   O60   0.950393  0.467303  0.549378  -1.008954
    O   O61   0.925879  0.498459  0.364701  -0.645343
    O   O62   0.862982  0.500871  0.426738  -0.514104
    C   C19   0.878310  0.501768  0.380577  1.105404
    O   O63   0.074122  0.501542  0.635300  -0.645267
    O   O64   0.137019  0.499129  0.573262  -0.514097
    C   C20   0.121690  0.498232  0.619423  1.105448
    O   O65   0.997684  0.571089  0.363216  -0.520920
    O   O66   0.003524  0.633662  0.423725  -0.522897
    C   C21   0.000759  0.619088  0.377637  0.914792
    O   O67   0.002315  0.428910  0.636783  -0.521030
    O   O68   0.996478  0.366339  0.576276  -0.522856
    C   C22   0.999242  0.380912  0.622365  0.914823
    O   O69   0.865517  0.426123  0.495304  -0.544085
    O   O70   0.927891  0.364894  0.501945  -0.565219
    C   C23   0.880741  0.378215  0.498491  0.849338
    O   O71   0.134482  0.573876  0.504694  -0.544074
    O   O72   0.072110  0.635106  0.498057  -0.565181
    C   C24   0.119258  0.621784  0.501508  0.849251
    C   C25   0.787401  0.943410  0.227911  0.171748
    C   C26   0.793499  0.887565  0.220683  -0.142504
    C   C27   0.827471  0.870520  0.181401  -0.141370
    C   C28   0.853088  0.908412  0.149502  -0.127668
    C   C29   0.847655  0.963183  0.156588  -0.324013
    C   C30   0.817844  0.981456  0.198962  0.105787
    C   C31   0.818117  0.038424  0.217293  -0.264927
    H   H1    0.768878  0.856785  0.241997  0.115322
    H   H2    0.828093  0.829285  0.171907  0.118759
    H   H3    0.883131  0.896495  0.121804  0.118713
    H   H4    0.854239  0.057771  0.210299  0.050694
    H   H5    0.812005  0.043129  0.259399  0.110148
    H   H6    0.784075  0.058718  0.200800  0.084677
    C   C32   0.664954  0.982910  0.340551  -0.561752
    C   C33   0.707176  0.950041  0.356072  -0.040236
    C   C34   0.749213  0.936393  0.319832  0.166562
    C   C35   0.796208  0.908396  0.343213  -0.290873
    C   C36   0.748514  0.954674  0.267036  -0.090762
    C   C37   0.707786  0.987807  0.254967  -0.335337
    C   C38   0.667157  0.001879  0.287636  0.540306
    F   F1    0.633655  0.037126  0.268101  -0.265322
    H   H7    0.709895  0.935311  0.396344  0.076627
    H   H8    0.784708  0.869207  0.360211  0.077733
    H   H9    0.827170  0.906288  0.317326  0.098427
    H   H10   0.810132  0.933353  0.377897  0.070651
    H   H11   0.709133  0.008330  0.218149  0.155100
    C   C39   0.712599  0.556590  0.227911  0.124642
    C   C40   0.706501  0.612435  0.220683  -0.120612
    C   C41   0.672529  0.629480  0.181401  -0.185426
    C   C42   0.646912  0.591588  0.149502  -0.092344
    C   C43   0.652345  0.536817  0.156588  -0.306228
    C   C44   0.682156  0.518544  0.198962  0.159231
    C   C45   0.681883  0.461576  0.217293  -0.316088
    H   H12   0.731122  0.643215  0.241997  0.112148
    H   H13   0.671907  0.670715  0.171907  0.139045
    H   H14   0.616869  0.603505  0.121804  0.101960
    H   H15   0.645761  0.442229  0.210299  0.066331
    H   H16   0.687995  0.456871  0.259399  0.122764
    H   H17   0.715925  0.441282  0.200800  0.085201
    C   C46   0.835046  0.517090  0.340551  -0.660313
    C   C47   0.792824  0.549959  0.356072  -0.021924
    C   C48   0.750787  0.563607  0.319832  0.178860
    C   C49   0.703792  0.591604  0.343213  -0.308109
    C   C50   0.751486  0.545326  0.267036  -0.063258
    C   C51   0.792214  0.512193  0.254967  -0.369102
    C   C52   0.832843  0.498121  0.287636  0.592519
    F   F2    0.866345  0.462874  0.268101  -0.271202
    H   H18   0.790105  0.564689  0.396344  0.068544
    H   H19   0.715292  0.630793  0.360211  0.080623
    H   H20   0.672830  0.593712  0.317326  0.095533
    H   H21   0.689868  0.566647  0.377897  0.073179
    H   H22   0.790867  0.491670  0.218149  0.163207
    C   C53   0.227911  0.787401  0.943410  0.152724
    C   C54   0.220683  0.793499  0.887565  -0.130530
    C   C55   0.181401  0.827471  0.870520  -0.155319
    C   C56   0.149502  0.853088  0.908412  -0.114314
    C   C57   0.156588  0.847655  0.963183  -0.298196
    C   C58   0.198962  0.817844  0.981456  0.101658
    C   C59   0.217293  0.818117  0.038424  -0.213912
    H   H23   0.241997  0.768878  0.856785  0.113813
    H   H24   0.171907  0.828093  0.829285  0.123864
    H   H25   0.121804  0.883131  0.896495  0.115801
    H   H26   0.210299  0.854239  0.057771  0.037197
    H   H27   0.259399  0.812005  0.043129  0.096553
    H   H28   0.200800  0.784075  0.058718  0.073499
    C   C60   0.340551  0.664954  0.982910  -0.548874
    C   C61   0.356072  0.707176  0.950041  -0.046815
    C   C62   0.319832  0.749213  0.936393  0.170078
    C   C63   0.343213  0.796208  0.908396  -0.296677
    C   C64   0.267036  0.748514  0.954674  -0.088224
    C   C65   0.254967  0.707786  0.987807  -0.326827
    C   C66   0.287636  0.667157  0.001879  0.533109
    F   F3    0.268101  0.633655  0.037126  -0.267393
    H   H29   0.396344  0.709895  0.935311  0.081747
    H   H30   0.360211  0.784708  0.869207  0.080598
    H   H31   0.317326  0.827170  0.906288  0.102261
    H   H32   0.377897  0.810132  0.933353  0.070409
    H   H33   0.218149  0.709133  0.008330  0.156390
    C   C67   0.227911  0.712599  0.556590  0.125019
    C   C68   0.220683  0.706501  0.612435  -0.126687
    C   C69   0.181401  0.672529  0.629480  -0.170311
    C   C70   0.149502  0.646912  0.591588  -0.106869
    C   C71   0.156588  0.652345  0.536817  -0.291112
    C   C72   0.198962  0.682156  0.518544  0.150366
    C   C73   0.217293  0.681883  0.461576  -0.293363
    H   H34   0.241997  0.731122  0.643215  0.114366
    H   H35   0.171907  0.671907  0.670715  0.132839
    H   H36   0.121804  0.616869  0.603505  0.123794
    H   H37   0.210299  0.645761  0.442229  0.060210
    H   H38   0.259399  0.687995  0.456871  0.116989
    H   H39   0.200800  0.715925  0.441282  0.079561
    C   C74   0.340551  0.835046  0.517090  -0.631457
    C   C75   0.356072  0.792824  0.549959  -0.034316
    C   C76   0.319832  0.750787  0.563607  0.185410
    C   C77   0.343213  0.703792  0.591604  -0.317838
    C   C78   0.267036  0.751486  0.545326  -0.072660
    C   C79   0.254967  0.792214  0.512193  -0.354445
    C   C80   0.287636  0.832843  0.498121  0.578684
    F   F4    0.268101  0.866345  0.462874  -0.274328
    H   H40   0.396344  0.790105  0.564689  0.075364
    H   H41   0.360211  0.715292  0.630793  0.084191
    H   H42   0.317326  0.672830  0.593712  0.102010
    H   H43   0.377897  0.689868  0.566647  0.072883
    H   H44   0.218149  0.790867  0.491670  0.163857
    C   C81   0.943410  0.227911  0.787401  0.171577
    C   C82   0.887565  0.220683  0.793499  -0.142780
    C   C83   0.870520  0.181401  0.827471  -0.137124
    C   C84   0.908412  0.149502  0.853088  -0.154555
    C   C85   0.963183  0.156588  0.847655  -0.277417
    C   C86   0.981456  0.198962  0.817844  0.085068
    C   C87   0.038424  0.217293  0.818117  -0.228273
    H   H45   0.856785  0.241997  0.768878  0.115072
    H   H46   0.829285  0.171907  0.828093  0.118337
    H   H47   0.896495  0.121804  0.883131  0.140811
    H   H48   0.057771  0.210299  0.854239  0.042365
    H   H49   0.043129  0.259399  0.812005  0.100024
    H   H50   0.058718  0.200800  0.784075  0.077889
    C   C88   0.982910  0.340551  0.664954  -0.510906
    C   C89   0.950041  0.356072  0.707176  -0.060041
    C   C90   0.936393  0.319832  0.749213  0.172158
    C   C91   0.908396  0.343213  0.796208  -0.290429
    C   C92   0.954674  0.267036  0.748514  -0.104427
    C   C93   0.987807  0.254967  0.707786  -0.308279
    C   C94   0.001879  0.287636  0.667157  0.501163
    F   F5    0.037126  0.268101  0.633655  -0.264780
    H   H51   0.935311  0.396344  0.709895  0.087546
    H   H52   0.869207  0.360211  0.784708  0.077551
    H   H53   0.906288  0.317326  0.827170  0.100103
    H   H54   0.933353  0.377897  0.810132  0.068761
    H   H55   0.008330  0.218149  0.709133  0.154745
    C   C95   0.556590  0.227911  0.712599  0.125653
    C   C96   0.612435  0.220683  0.706501  -0.118491
    C   C97   0.629480  0.181401  0.672529  -0.186080
    C   C98   0.591588  0.149502  0.646912  -0.109905
    C   C99   0.536817  0.156588  0.652345  -0.270764
    C   C100  0.518544  0.198962  0.682156  0.140319
    C   C101  0.461576  0.217293  0.681883  -0.294748
    H   H56   0.643215  0.241997  0.731122  0.111561
    H   H57   0.670715  0.171907  0.671907  0.138408
    H   H58   0.603505  0.121804  0.616869  0.120466
    H   H59   0.442229  0.210299  0.645761  0.060582
    H   H60   0.456871  0.259399  0.687995  0.117794
    H   H61   0.441282  0.200800  0.715925  0.080495
    C   C102  0.517090  0.340551  0.835046  -0.637858
    C   C103  0.549959  0.356072  0.792824  -0.034357
    C   C104  0.563607  0.319832  0.750787  0.185860
    C   C105  0.591604  0.343213  0.703792  -0.311103
    C   C106  0.545326  0.267036  0.751486  -0.075879
    C   C107  0.512193  0.254967  0.792214  -0.348739
    C   C108  0.498121  0.287636  0.832843  0.568797
    F   F6    0.462874  0.268101  0.866345  -0.274336
    H   H62   0.564689  0.396344  0.790105  0.074375
    H   H63   0.630793  0.360211  0.715292  0.081915
    H   H64   0.593712  0.317326  0.672830  0.097617
    H   H65   0.566647  0.377897  0.689868  0.072306
    H   H66   0.491670  0.218149  0.790867  0.164028
    C   C109  0.212599  0.056590  0.772089  0.171725
    C   C110  0.206501  0.112435  0.779317  -0.142490
    C   C111  0.172529  0.129480  0.818599  -0.141399
    C   C112  0.146912  0.091588  0.850498  -0.127586
    C   C113  0.152345  0.036817  0.843412  -0.324169
    C   C114  0.182156  0.018544  0.801038  0.105888
    C   C115  0.181883  0.961576  0.782707  -0.265033
    H   H67   0.231122  0.143215  0.758003  0.115321
    H   H68   0.171907  0.170715  0.828093  0.118764
    H   H69   0.116869  0.103505  0.878196  0.118678
    H   H70   0.145761  0.942229  0.789701  0.050708
    H   H71   0.187995  0.956871  0.740601  0.110176
    H   H72   0.215925  0.941282  0.799200  0.084696
    C   C116  0.335046  0.017090  0.659449  -0.561940
    C   C117  0.292824  0.049959  0.643928  -0.040151
    C   C118  0.250787  0.063607  0.680168  0.166545
    C   C119  0.203792  0.091604  0.656787  -0.290883
    C   C120  0.251486  0.045326  0.732964  -0.090754
    C   C121  0.292214  0.012193  0.745033  -0.335344
    C   C122  0.332843  0.998121  0.712364  0.540373
    F   F7    0.366345  0.962874  0.731899  -0.265336
    H   H73   0.290105  0.064689  0.603656  0.076605
    H   H74   0.215292  0.130793  0.639789  0.077736
    H   H75   0.172830  0.093712  0.682674  0.098429
    H   H76   0.189868  0.066647  0.622103  0.070654
    H   H77   0.290867  0.991670  0.781851  0.155093
    C   C123  0.287401  0.443410  0.772089  0.124631
    C   C124  0.293499  0.387565  0.779317  -0.120592
    C   C125  0.327471  0.370520  0.818599  -0.185472
    C   C126  0.353088  0.408412  0.850498  -0.092180
    C   C127  0.347655  0.463183  0.843412  -0.306499
    C   C128  0.317844  0.481456  0.801038  0.159358
    C   C129  0.318117  0.538424  0.782707  -0.316201
    H   H78   0.268878  0.356785  0.758003  0.112147
    H   H79   0.328093  0.329285  0.828093  0.139051
    H   H80   0.383131  0.396495  0.878196  0.101878
    H   H81   0.354239  0.557771  0.789701  0.066349
    H   H82   0.312005  0.543129  0.740601  0.122796
    H   H83   0.284075  0.558718  0.799200  0.085221
    C   C130  0.164954  0.482910  0.659449  -0.660432
    C   C131  0.207176  0.450041  0.643928  -0.021861
    C   C132  0.249213  0.436393  0.680168  0.178856
    C   C133  0.296208  0.408396  0.656787  -0.308125
    C   C134  0.248514  0.454674  0.732964  -0.063286
    C   C135  0.207786  0.487807  0.745033  -0.369081
    C   C136  0.167157  0.501879  0.712364  0.592555
    F   F8    0.133655  0.537126  0.731899  -0.271218
    H   H84   0.209895  0.435311  0.603656  0.068527
    H   H85   0.284708  0.369207  0.639789  0.080625
    H   H86   0.327170  0.406288  0.682674  0.095541
    H   H87   0.310132  0.433353  0.622103  0.073182
    H   H88   0.209133  0.508330  0.781851  0.163197
    C   C137  0.772089  0.212599  0.056590  0.152789
    C   C138  0.779317  0.206501  0.112435  -0.130537
    C   C139  0.818599  0.172529  0.129480  -0.155296
    C   C140  0.850498  0.146912  0.091588  -0.114320
    C   C141  0.843412  0.152345  0.036817  -0.298290
    C   C142  0.801038  0.182156  0.018544  0.101650
    C   C143  0.782707  0.181883  0.961576  -0.213942
    H   H89   0.758003  0.231122  0.143215  0.113810
    H   H90   0.828093  0.171907  0.170715  0.123849
    H   H91   0.878196  0.116869  0.103505  0.115781
    H   H92   0.789701  0.145761  0.942229  0.037189
    H   H93   0.740601  0.187995  0.956871  0.096568
    H   H94   0.799200  0.215925  0.941282  0.073506
    C   C144  0.659449  0.335046  0.017090  -0.549030
    C   C145  0.643928  0.292824  0.049959  -0.046735
    C   C146  0.680168  0.250787  0.063607  0.170091
    C   C147  0.656787  0.203792  0.091604  -0.296698
    C   C148  0.732964  0.251486  0.045326  -0.088256
    C   C149  0.745033  0.292214  0.012193  -0.326868
    C   C150  0.712364  0.332843  0.998121  0.533220
    F   F9    0.731899  0.366345  0.962874  -0.267415
    H   H95   0.603656  0.290105  0.064689  0.081697
    H   H96   0.639789  0.215292  0.130793  0.080603
    H   H97   0.682674  0.172830  0.093712  0.102259
    H   H98   0.622103  0.189868  0.066647  0.070417
    H   H99   0.781851  0.290867  0.991670  0.156394
    C   C151  0.772089  0.287401  0.443410  0.125076
    C   C152  0.779317  0.293499  0.387565  -0.126696
    C   C153  0.818599  0.327471  0.370520  -0.170286
    C   C154  0.850498  0.353088  0.408412  -0.106896
    C   C155  0.843412  0.347655  0.463183  -0.291129
    C   C156  0.801038  0.317844  0.481456  0.150332
    C   C157  0.782707  0.318117  0.538424  -0.293360
    H   H100  0.758003  0.268878  0.356785  0.114364
    H   H101  0.828093  0.328093  0.329285  0.132832
    H   H102  0.878196  0.383131  0.396495  0.123771
    H   H103  0.789701  0.354239  0.557771  0.060200
    H   H104  0.740601  0.312005  0.543129  0.116995
    H   H105  0.799200  0.284075  0.558718  0.079560
    C   C158  0.659449  0.164954  0.482910  -0.631576
    C   C159  0.643928  0.207176  0.450041  -0.034256
    C   C160  0.680168  0.249213  0.436393  0.185427
    C   C161  0.656787  0.296208  0.408396  -0.317853
    C   C162  0.732964  0.248514  0.454674  -0.072688
    C   C163  0.745033  0.207786  0.487807  -0.354480
    C   C164  0.712364  0.167157  0.501879  0.578776
    F   F10   0.731899  0.133655  0.537126  -0.274344
    H   H106  0.603656  0.209895  0.435311  0.075318
    H   H107  0.639789  0.284708  0.369207  0.084197
    H   H108  0.682674  0.327170  0.406288  0.102008
    H   H109  0.622103  0.310132  0.433353  0.072892
    H   H110  0.781851  0.209133  0.508330  0.163862
    C   C165  0.056590  0.772089  0.212599  0.171547
    C   C166  0.112435  0.779317  0.206501  -0.142755
    C   C167  0.129480  0.818599  0.172529  -0.137115
    C   C168  0.091588  0.850498  0.146912  -0.154590
    C   C169  0.036817  0.843412  0.152345  -0.277438
    C   C170  0.018544  0.801038  0.182156  0.085124
    C   C171  0.961576  0.782707  0.181883  -0.228286
    H   H111  0.143215  0.758003  0.231122  0.115064
    H   H112  0.170715  0.828093  0.171907  0.118327
    H   H113  0.103505  0.878196  0.116869  0.140851
    H   H114  0.942229  0.789701  0.145761  0.042377
    H   H115  0.956871  0.740601  0.187995  0.100018
    H   H116  0.941282  0.799200  0.215925  0.077889
    C   C172  0.017090  0.659449  0.335046  -0.510917
    C   C173  0.049959  0.643928  0.292824  -0.060078
    C   C174  0.063607  0.680168  0.250787  0.172197
    C   C175  0.091604  0.656787  0.203792  -0.290442
    C   C176  0.045326  0.732964  0.251486  -0.104428
    C   C177  0.012193  0.745033  0.292214  -0.308304
    C   C178  0.998121  0.712364  0.332843  0.501203
    F   F11   0.962874  0.731899  0.366345  -0.264784
    H   H117  0.064689  0.603656  0.290105  0.087545
    H   H118  0.130793  0.639789  0.215292  0.077553
    H   H119  0.093712  0.682674  0.172830  0.100097
    H   H120  0.066647  0.622103  0.189868  0.068766
    H   H121  0.991670  0.781851  0.290867  0.154747
    C   C179  0.443410  0.772089  0.287401  0.125644
    C   C180  0.387565  0.779317  0.293499  -0.118471
    C   C181  0.370520  0.818599  0.327471  -0.186092
    C   C182  0.408412  0.850498  0.353088  -0.109879
    C   C183  0.463183  0.843412  0.347655  -0.270836
    C   C184  0.481456  0.801038  0.317844  0.140375
    C   C185  0.538424  0.782707  0.318117  -0.294786
    H   H122  0.356785  0.758003  0.268878  0.111555
    H   H123  0.329285  0.828093  0.328093  0.138408
    H   H124  0.396495  0.878196  0.383131  0.120459
    H   H125  0.557771  0.789701  0.354239  0.060594
    H   H126  0.543129  0.740601  0.312005  0.117800
    H   H127  0.558718  0.799200  0.284075  0.080501
    C   C186  0.482910  0.659449  0.164954  -0.637809
    C   C187  0.450041  0.643928  0.207176  -0.034400
    C   C188  0.436393  0.680168  0.249213  0.185893
    C   C189  0.408396  0.656787  0.296208  -0.311109
    C   C190  0.454674  0.732964  0.248514  -0.075900
    C   C191  0.487807  0.745033  0.207786  -0.348752
    C   C192  0.501879  0.712364  0.167157  0.568813
    F   F12   0.537126  0.731899  0.133655  -0.274339
    H   H128  0.435311  0.603656  0.209895  0.074372
    H   H129  0.369207  0.639789  0.284708  0.081916
    H   H130  0.406288  0.682674  0.327170  0.097613
    H   H131  0.433353  0.622103  0.310132  0.072311
    H   H132  0.508330  0.781851  0.209133  0.164029
