# Generated by REPEAT Assigner based on pymatgen
data_DB13-lvt-Syn019422
_audit_creation_date              2022-05-24
_audit_creation_method            REPEAT_Assigner
_cell_length_a                    25.139500
_cell_length_b                    25.139500
_cell_length_c                    25.139500
_cell_angle_alpha                 90.000000
_cell_angle_beta                  90.000000
_cell_angle_gamma                 90.000000
_cell_volume                      15888.024733
_symmetry_space_group_name_H-M    P1
_symmetry_Int_Tables_number       1
loop_
    _symmetry_equiv_pos_site_id
    _symmetry_equiv_pos_as_xyz
    1  x,y,z
loop_
    _atom_site_type_symbol
    _atom_site_label
    _atom_site_fract_x
    _atom_site_fract_y
    _atom_site_fract_z
    _atom_type_partial_charge
    C   C1    0.070936  0.550159  0.050159  0.594496
    C   C2    0.070936  0.449841  0.949841  0.594490
    C   C3    0.929064  0.449841  0.949841  0.594488
    C   C4    0.929064  0.550159  0.050159  0.594494
    C   C5    0.070936  0.949841  0.050159  0.648622
    C   C6    0.844411  0.872162  0.011288  0.053325
    C   C7    0.879910  0.856438  0.969684  -0.191378
    C   C8    0.865042  0.859422  0.914749  0.165522
    C   C9    0.814142  0.868677  0.902042  0.268000
    C   C10   0.777777  0.881000  0.942212  -0.268537
    C   C11   0.790112  0.879657  0.995369  -0.160774
    C   C12   0.819918  0.845924  0.815380  0.451233
    C   C13   0.786075  0.833560  0.766205  -0.578757
    C   C14   0.859987  0.873872  0.064537  0.069226
    C   C15   0.908181  0.898418  0.087595  -0.072391
    C   C16   0.925211  0.886586  0.139077  -0.124088
    C   C17   0.894312  0.851675  0.169178  -0.175033
    C   C18   0.843853  0.833701  0.152829  0.067083
    C   C19   0.827281  0.843917  0.100877  -0.200382
    C   C20   0.655589  0.127838  0.511288  0.053353
    C   C21   0.620090  0.143562  0.469684  -0.191394
    C   C22   0.634958  0.140578  0.414749  0.165569
    C   C23   0.685858  0.131323  0.402042  0.267872
    C   C24   0.722223  0.119000  0.442212  -0.268375
    C   C25   0.709888  0.120343  0.495369  -0.160853
    C   C26   0.680082  0.154076  0.315380  0.451182
    C   C27   0.713925  0.166440  0.266205  -0.578775
    C   C28   0.640013  0.126128  0.564537  0.069211
    C   C29   0.591819  0.101582  0.587595  -0.072405
    C   C30   0.574789  0.113414  0.639077  -0.124074
    C   C31   0.570936  0.050159  0.550159  0.648625
    C   C32   0.605688  0.148325  0.669178  -0.175030
    C   C33   0.656147  0.166299  0.652829  0.067090
    C   C34   0.672719  0.156083  0.600877  -0.200366
    C   C35   0.377838  0.594411  0.261288  0.057699
    C   C36   0.393562  0.629910  0.219684  -0.194138
    C   C37   0.390578  0.615042  0.164749  0.167702
    C   C38   0.381323  0.564142  0.152042  0.269441
    C   C39   0.369000  0.527777  0.192212  -0.288163
    C   C40   0.370343  0.540112  0.245369  -0.138269
    C   C41   0.404076  0.569918  0.065380  0.389085
    C   C42   0.416440  0.536075  0.016205  -0.577427
    C   C43   0.376128  0.609987  0.314537  0.036584
    C   C44   0.351582  0.658181  0.337595  -0.019453
    C   C45   0.363414  0.675211  0.389077  -0.176711
    C   C46   0.398325  0.644312  0.419178  -0.139449
    C   C47   0.570936  0.949841  0.449841  0.648613
    C   C48   0.416299  0.593853  0.402829  0.094669
    C   C49   0.406083  0.577281  0.350877  -0.197870
    C   C50   0.122162  0.405589  0.761288  0.057723
    C   C51   0.106438  0.370090  0.719684  -0.194159
    C   C52   0.109422  0.384958  0.664749  0.167752
    C   C53   0.118677  0.435858  0.652042  0.269313
    C   C54   0.131000  0.472223  0.692212  -0.288007
    C   C55   0.129657  0.459888  0.745369  -0.138342
    C   C56   0.929064  0.949841  0.050159  0.648625
    C   C57   0.095924  0.430082  0.565380  0.389003
    C   C58   0.083560  0.463925  0.516205  -0.577394
    C   C59   0.123872  0.390013  0.814537  0.036576
    C   C60   0.148418  0.341819  0.837595  -0.019449
    C   C61   0.136586  0.324789  0.889077  -0.176715
    C   C62   0.101675  0.355688  0.919178  -0.139439
    C   C63   0.083701  0.406147  0.902829  0.094657
    C   C64   0.093917  0.422719  0.850877  -0.197862
    C   C65   0.429064  0.949841  0.449841  0.648611
    C   C66   0.655589  0.872162  0.488712  0.053350
    C   C67   0.620090  0.856438  0.530316  -0.191398
    C   C68   0.634958  0.859422  0.585251  0.165572
    C   C69   0.685858  0.868677  0.597958  0.267865
    C   C70   0.722223  0.881000  0.557788  -0.268361
    C   C71   0.709888  0.879657  0.504631  -0.160864
    C   C72   0.680082  0.845924  0.684620  0.451191
    C   C73   0.713925  0.833560  0.733795  -0.578783
    C   C74   0.640013  0.873872  0.435463  0.069226
    C   C75   0.591819  0.898418  0.412405  -0.072404
    C   C76   0.574789  0.886586  0.360923  -0.124076
    C   C77   0.605688  0.851675  0.330822  -0.175032
    C   C78   0.656147  0.833701  0.347171  0.067092
    C   C79   0.672719  0.843917  0.399123  -0.200383
    C   C80   0.844411  0.127838  0.988712  0.053314
    C   C81   0.879910  0.143562  0.030316  -0.191373
    C   C82   0.865042  0.140578  0.085251  0.165522
    C   C83   0.429064  0.050159  0.550159  0.648622
    C   C84   0.814142  0.131323  0.097958  0.268001
    C   C85   0.777777  0.119000  0.057788  -0.268532
    C   C86   0.790112  0.120343  0.004631  -0.160779
    C   C87   0.819918  0.154076  0.184620  0.451250
    C   C88   0.786075  0.166440  0.233795  -0.578769
    C   C89   0.859987  0.126128  0.935463  0.069238
    C   C90   0.908181  0.101582  0.912405  -0.072392
    C   C91   0.925211  0.113414  0.860923  -0.124098
    C   C92   0.894312  0.148325  0.830822  -0.175035
    C   C93   0.843853  0.166299  0.847171  0.067098
    C   C94   0.827281  0.156083  0.899123  -0.200392
    C   C95   0.122162  0.594411  0.238712  0.057697
    C   C96   0.106438  0.629910  0.280316  -0.194138
    C   C97   0.109422  0.615042  0.335251  0.167698
    C   C98   0.118677  0.564142  0.347958  0.269449
    C   C99   0.131000  0.527777  0.307788  -0.288161
    C   C100  0.129657  0.540112  0.254631  -0.138273
    C   C101  0.095924  0.569918  0.434620  0.389105
    C   C102  0.083560  0.536075  0.483795  -0.577391
    C   C103  0.123872  0.609987  0.185463  0.036588
    C   C104  0.148418  0.658181  0.162405  -0.019447
    C   C105  0.136586  0.675211  0.110923  -0.176719
    C   C106  0.101675  0.644312  0.080822  -0.139443
    C   C107  0.083701  0.593853  0.097171  0.094660
    C   C108  0.093917  0.577281  0.149123  -0.197871
    C   C109  0.300159  0.679064  0.300159  0.592186
    C   C110  0.377838  0.405589  0.738712  0.057703
    C   C111  0.393562  0.370090  0.780316  -0.194144
    C   C112  0.390578  0.384958  0.835251  0.167716
    C   C113  0.381323  0.435858  0.847958  0.269426
    C   C114  0.369000  0.472223  0.807788  -0.288146
    C   C115  0.370343  0.459888  0.754631  -0.138282
    C   C116  0.404076  0.430082  0.934620  0.389095
    C   C117  0.416440  0.463925  0.983795  -0.577439
    C   C118  0.376128  0.390013  0.685463  0.036577
    C   C119  0.351582  0.341819  0.662405  -0.019437
    C   C120  0.363414  0.324789  0.610923  -0.176732
    C   C121  0.398325  0.355688  0.580822  -0.139435
    C   C122  0.416299  0.406147  0.597171  0.094661
    C   C123  0.406083  0.422719  0.649123  -0.197864
    C   C124  0.155589  0.127838  0.988712  0.053323
    C   C125  0.120090  0.143562  0.030316  -0.191380
    C   C126  0.199841  0.679064  0.199841  0.592176
    C   C127  0.134958  0.140578  0.085251  0.165533
    C   C128  0.185858  0.131323  0.097958  0.267986
    C   C129  0.222223  0.119000  0.057788  -0.268519
    C   C130  0.209888  0.120343  0.004631  -0.160788
    C   C131  0.180082  0.154076  0.184620  0.451251
    C   C132  0.213925  0.166440  0.233795  -0.578782
    C   C133  0.140013  0.126128  0.935463  0.069231
    C   C134  0.091819  0.101582  0.912405  -0.072392
    C   C135  0.074789  0.113414  0.860923  -0.124098
    C   C136  0.105688  0.148325  0.830822  -0.175029
    C   C137  0.156147  0.166299  0.847171  0.067098
    C   C138  0.172719  0.156083  0.899123  -0.200385
    C   C139  0.344411  0.872162  0.488712  0.053320
    C   C140  0.379910  0.856438  0.530316  -0.191377
    C   C141  0.365042  0.859422  0.585251  0.165524
    C   C142  0.314142  0.868677  0.597958  0.267994
    C   C143  0.277777  0.881000  0.557788  -0.268529
    C   C144  0.199841  0.820936  0.199841  0.646214
    C   C145  0.290112  0.879657  0.504631  -0.160774
    C   C146  0.319918  0.845924  0.684620  0.451246
    C   C147  0.286075  0.833560  0.733795  -0.578768
    C   C148  0.359987  0.873872  0.435463  0.069230
    C   C149  0.408181  0.898418  0.412405  -0.072405
    C   C150  0.425211  0.886586  0.360923  -0.124076
    C   C151  0.394312  0.851675  0.330822  -0.175037
    C   C152  0.343853  0.833701  0.347171  0.067089
    C   C153  0.327281  0.843917  0.399123  -0.200382
    C   C154  0.622162  0.405589  0.738712  0.057718
    C   C155  0.606438  0.370090  0.780316  -0.194161
    C   C156  0.609422  0.384958  0.835251  0.167754
    C   C157  0.618677  0.435858  0.847958  0.269310
    C   C158  0.631000  0.472223  0.807788  -0.287993
    C   C159  0.629657  0.459888  0.754631  -0.138356
    C   C160  0.595924  0.430082  0.934620  0.389022
    C   C161  0.300159  0.820936  0.300159  0.646216
    C   C162  0.583560  0.463925  0.983795  -0.577421
    C   C163  0.623872  0.390013  0.685463  0.036591
    C   C164  0.648418  0.341819  0.662405  -0.019444
    C   C165  0.636586  0.324789  0.610923  -0.176727
    C   C166  0.601675  0.355688  0.580822  -0.139436
    C   C167  0.583701  0.406147  0.597171  0.094656
    C   C168  0.593917  0.422719  0.649123  -0.197874
    C   C169  0.877838  0.594411  0.238712  0.057698
    C   C170  0.893562  0.629910  0.280316  -0.194121
    C   C171  0.890578  0.615042  0.335251  0.167702
    C   C172  0.881323  0.564142  0.347958  0.269378
    C   C173  0.869000  0.527777  0.307788  -0.288138
    C   C174  0.870343  0.540112  0.254631  -0.138280
    C   C175  0.904076  0.569918  0.434620  0.388763
    C   C176  0.916440  0.536075  0.483795  -0.577232
    C   C177  0.876128  0.609987  0.185463  0.036581
    C   C178  0.851582  0.658181  0.162405  -0.019446
    C   C179  0.863414  0.675211  0.110923  -0.176719
    C   C180  0.898325  0.644312  0.080822  -0.139449
    C   C181  0.916299  0.593853  0.097171  0.094675
    C   C182  0.906083  0.577281  0.149123  -0.197874
    C   C183  0.344411  0.127838  0.511288  0.053319
    C   C184  0.379910  0.143562  0.469684  -0.191372
    C   C185  0.365042  0.140578  0.414749  0.165523
    C   C186  0.314142  0.131323  0.402042  0.267998
    C   C187  0.199841  0.320936  0.800159  0.592183
    C   C188  0.277777  0.119000  0.442212  -0.268538
    C   C189  0.290112  0.120343  0.495369  -0.160765
    C   C190  0.319918  0.154076  0.315380  0.451250
    C   C191  0.286075  0.166440  0.266205  -0.578778
    C   C192  0.359987  0.126128  0.564537  0.069218
    C   C193  0.408181  0.101582  0.587595  -0.072389
    C   C194  0.425211  0.113414  0.639077  -0.124095
    C   C195  0.394312  0.148325  0.669178  -0.175028
    C   C196  0.343853  0.166299  0.652829  0.067086
    C   C197  0.327281  0.156083  0.600877  -0.200369
    C   C198  0.155589  0.872162  0.011288  0.053352
    C   C199  0.120090  0.856438  0.969684  -0.191400
    C   C200  0.134958  0.859422  0.914749  0.165569
    C   C201  0.185858  0.868677  0.902042  0.267872
    C   C202  0.222223  0.881000  0.942212  -0.268373
    C   C203  0.209888  0.879657  0.995369  -0.160859
    C   C204  0.300159  0.320936  0.699841  0.592185
    C   C205  0.180082  0.845924  0.815380  0.451176
    C   C206  0.213925  0.833560  0.766205  -0.578771
    C   C207  0.140013  0.873872  0.064537  0.069230
    C   C208  0.091819  0.898418  0.087595  -0.072415
    C   C209  0.074789  0.886586  0.139077  -0.124062
    C   C210  0.105688  0.851675  0.169178  -0.175037
    C   C211  0.156147  0.833701  0.152829  0.067089
    C   C212  0.172719  0.843917  0.100877  -0.200384
    C   C213  0.877838  0.405589  0.761288  0.057706
    C   C214  0.893562  0.370090  0.719684  -0.194140
    C   C215  0.890578  0.384958  0.664749  0.167713
    C   C216  0.881323  0.435858  0.652042  0.269428
    C   C217  0.869000  0.472223  0.692212  -0.288157
    C   C218  0.870343  0.459888  0.745369  -0.138269
    C   C219  0.904076  0.430082  0.565380  0.389097
    C   C220  0.916440  0.463925  0.516205  -0.577367
    C   C221  0.929064  0.050159  0.949841  0.648635
    C   C222  0.300159  0.179064  0.699841  0.646206
    C   C223  0.876128  0.390013  0.814537  0.036564
    C   C224  0.851582  0.341819  0.837595  -0.019442
    C   C225  0.863414  0.324789  0.889077  -0.176721
    C   C226  0.898325  0.355688  0.919178  -0.139441
    C   C227  0.916299  0.406147  0.902829  0.094666
    C   C228  0.906083  0.422719  0.850877  -0.197856
    C   C229  0.622162  0.594411  0.261288  0.057701
    C   C230  0.606438  0.629910  0.219684  -0.194140
    C   C231  0.609422  0.615042  0.164749  0.167702
    C   C232  0.618677  0.564142  0.152042  0.269438
    C   C233  0.631000  0.527777  0.192212  -0.288160
    C   C234  0.629657  0.540112  0.245369  -0.138269
    C   C235  0.595924  0.569918  0.065380  0.389077
    C   C236  0.583560  0.536075  0.016205  -0.577411
    C   C237  0.199841  0.179064  0.800159  0.646208
    C   C238  0.623872  0.609987  0.314537  0.036584
    C   C239  0.648418  0.658181  0.337595  -0.019449
    C   C240  0.636586  0.675211  0.389077  -0.176715
    C   C241  0.601675  0.644312  0.419178  -0.139445
    C   C242  0.583701  0.593853  0.402829  0.094660
    C   C243  0.593917  0.577281  0.350877  -0.197871
    C   C244  0.699841  0.320936  0.699841  0.592174
    C   C245  0.800159  0.320936  0.800159  0.592195
    C   C246  0.800159  0.179064  0.800159  0.646212
    C   C247  0.699841  0.179064  0.699841  0.646201
    C   C248  0.800159  0.679064  0.199841  0.592190
    C   C249  0.699841  0.679064  0.300159  0.592167
    C   C250  0.699841  0.820936  0.300159  0.646212
    C   C251  0.070936  0.050159  0.949841  0.648628
    C   C252  0.800159  0.820936  0.199841  0.646218
    C   C253  0.429064  0.449841  0.550159  0.594486
    C   C254  0.429064  0.550159  0.449841  0.594485
    C   C255  0.570936  0.550159  0.449841  0.594491
    C   C256  0.570936  0.449841  0.550159  0.594496
    Cu  Cu1   0.000000  0.962657  0.962657  0.931299
    Cu  Cu2   0.000000  0.037343  0.037343  0.931280
    Cu  Cu3   0.500000  0.037343  0.462657  0.931262
    Cu  Cu4   0.500000  0.962657  0.537343  0.931253
    Cu  Cu5   0.287343  0.750000  0.212657  0.913162
    Cu  Cu6   0.212657  0.750000  0.287343  0.913157
    Cu  Cu7   0.212657  0.250000  0.712657  0.913170
    Cu  Cu8   0.287343  0.250000  0.787343  0.913152
    Cu  Cu9   0.712657  0.250000  0.787343  0.913158
    Cu  Cu10  0.787343  0.250000  0.712657  0.913165
    Cu  Cu11  0.787343  0.750000  0.287343  0.913153
    Cu  Cu12  0.712657  0.750000  0.212657  0.913165
    Cu  Cu13  0.500000  0.462657  0.462657  0.909194
    Cu  Cu14  0.500000  0.537343  0.537343  0.909183
    Cu  Cu15  0.000000  0.537343  0.962657  0.909215
    Cu  Cu16  0.000000  0.462657  0.037343  0.909213
    F   F1    0.903448  0.848941  0.877975  -0.210206
    F   F2    0.596552  0.151059  0.377975  -0.210215
    F   F3    0.401059  0.653448  0.127975  -0.216272
    F   F4    0.098941  0.346552  0.627975  -0.216281
    F   F5    0.596552  0.848941  0.622025  -0.210216
    F   F6    0.903448  0.151059  0.122025  -0.210206
    F   F7    0.098941  0.653448  0.372025  -0.216269
    F   F8    0.401059  0.346552  0.872025  -0.216277
    F   F9    0.096552  0.151059  0.122025  -0.210210
    F   F10   0.403448  0.848941  0.622025  -0.210207
    F   F11   0.598941  0.346552  0.872025  -0.216281
    F   F12   0.901059  0.653448  0.372025  -0.216267
    F   F13   0.403448  0.151059  0.377975  -0.210207
    F   F14   0.096552  0.848941  0.877975  -0.210214
    F   F15   0.901059  0.346552  0.627975  -0.216276
    F   F16   0.598941  0.653448  0.127975  -0.216271
    H   H1    0.921517  0.854051  0.977272  0.130478
    H   H2    0.733510  0.890519  0.932944  0.154704
    H   H3    0.759831  0.886666  0.026506  0.124009
    H   H4    0.837414  0.808070  0.828612  -0.031254
    H   H5    0.852402  0.872910  0.806127  -0.024625
    H   H6    0.802480  0.802480  0.737951  0.108481
    H   H7    0.783697  0.869679  0.742494  0.154199
    H   H8    0.746877  0.819766  0.776775  0.234049
    H   H9    0.960111  0.901076  0.157797  0.156835
    H   H10   0.911589  0.844337  0.210233  0.118924
    H   H11   0.788809  0.829247  0.089871  0.124820
    H   H12   0.578483  0.145949  0.477272  0.130480
    H   H13   0.766490  0.109481  0.432944  0.154635
    H   H14   0.740169  0.113334  0.526506  0.124032
    H   H15   0.662586  0.191930  0.328612  -0.031236
    H   H16   0.647598  0.127090  0.306127  -0.024606
    H   H17   0.697520  0.197520  0.237951  0.108489
    H   H18   0.716303  0.130321  0.242494  0.154203
    H   H19   0.753123  0.180234  0.276775  0.234058
    H   H20   0.539889  0.098924  0.657797  0.156829
    H   H21   0.588411  0.155663  0.710233  0.118916
    H   H22   0.711191  0.170753  0.589871  0.124810
    H   H23   0.395949  0.671517  0.227272  0.128503
    H   H24   0.359481  0.483510  0.182944  0.157432
    H   H25   0.363334  0.509831  0.276506  0.112967
    H   H26   0.441930  0.587414  0.078612  -0.007144
    H   H27   0.377090  0.602402  0.056127  -0.008010
    H   H28   0.447520  0.552480  0.987951  0.108704
    H   H29   0.380321  0.533697  0.992494  0.164049
    H   H30   0.430234  0.496877  0.026775  0.229891
    H   H31   0.348924  0.710111  0.407797  0.188216
    H   H32   0.405663  0.661589  0.460233  0.096694
    H   H33   0.420753  0.538809  0.339871  0.139475
    H   H34   0.104051  0.328483  0.727272  0.128507
    H   H35   0.140519  0.516490  0.682944  0.157364
    H   H36   0.136666  0.490169  0.776506  0.112986
    H   H37   0.058070  0.412586  0.578612  -0.007120
    H   H38   0.122910  0.397598  0.556127  -0.007987
    H   H39   0.052480  0.447520  0.487951  0.108705
    H   H40   0.119679  0.466303  0.492494  0.164040
    H   H41   0.069766  0.503123  0.526775  0.229880
    H   H42   0.151076  0.289889  0.907797  0.188216
    H   H43   0.094337  0.338411  0.960233  0.096691
    H   H44   0.079247  0.461191  0.839871  0.139475
    H   H45   0.578483  0.854051  0.522728  0.130480
    H   H46   0.766490  0.890519  0.567056  0.154631
    H   H47   0.740169  0.886666  0.473494  0.124035
    H   H48   0.662586  0.808070  0.671388  -0.031238
    H   H49   0.647598  0.872910  0.693873  -0.024607
    H   H50   0.697520  0.802480  0.762049  0.108494
    H   H51   0.716303  0.869679  0.757506  0.154200
    H   H52   0.753123  0.819766  0.723225  0.234062
    H   H53   0.539889  0.901076  0.342203  0.156828
    H   H54   0.588411  0.844337  0.289767  0.118921
    H   H55   0.711191  0.829247  0.410129  0.124818
    H   H56   0.921517  0.145949  0.022728  0.130477
    H   H57   0.733510  0.109481  0.067056  0.154702
    H   H58   0.759831  0.113334  0.973494  0.124011
    H   H59   0.837414  0.191930  0.171388  -0.031259
    H   H60   0.852402  0.127090  0.193873  -0.024627
    H   H61   0.802480  0.197520  0.262049  0.108482
    H   H62   0.783697  0.130321  0.257506  0.154200
    H   H63   0.746877  0.180234  0.223225  0.234055
    H   H64   0.960111  0.098924  0.842203  0.156840
    H   H65   0.911589  0.155663  0.789767  0.118924
    H   H66   0.788809  0.170753  0.910129  0.124822
    H   H67   0.104051  0.671517  0.272728  0.128502
    H   H68   0.140519  0.483510  0.317056  0.157431
    H   H69   0.136666  0.509831  0.223494  0.112968
    H   H70   0.058070  0.587414  0.421388  -0.007161
    H   H71   0.122910  0.602402  0.443873  -0.008014
    H   H72   0.052480  0.552480  0.512049  0.108699
    H   H73   0.119679  0.533697  0.507506  0.164034
    H   H74   0.069766  0.496877  0.473225  0.229883
    H   H75   0.151076  0.710111  0.092203  0.188218
    H   H76   0.094337  0.661589  0.039767  0.096695
    H   H77   0.079247  0.538809  0.160129  0.139479
    H   H78   0.395949  0.328483  0.772728  0.128505
    H   H79   0.359481  0.516490  0.817056  0.157428
    H   H80   0.363334  0.490169  0.723494  0.112971
    H   H81   0.441930  0.412586  0.921388  -0.007147
    H   H82   0.377090  0.397598  0.943873  -0.008008
    H   H83   0.447520  0.447520  0.012049  0.108708
    H   H84   0.380321  0.466303  0.007506  0.164049
    H   H85   0.430234  0.503123  0.973225  0.229900
    H   H86   0.348924  0.289889  0.592203  0.188223
    H   H87   0.405663  0.338411  0.539767  0.096691
    H   H88   0.420753  0.461191  0.660129  0.139475
    H   H89   0.078483  0.145949  0.022728  0.130478
    H   H90   0.266490  0.109481  0.067056  0.154699
    H   H91   0.240169  0.113334  0.973494  0.124014
    H   H92   0.162586  0.191930  0.171388  -0.031256
    H   H93   0.147598  0.127090  0.193873  -0.024625
    H   H94   0.197520  0.197520  0.262049  0.108484
    H   H95   0.216303  0.130321  0.257506  0.154202
    H   H96   0.253123  0.180234  0.223225  0.234063
    H   H97   0.039889  0.098924  0.842203  0.156836
    H   H98   0.088411  0.155663  0.789767  0.118920
    H   H99   0.211191  0.170753  0.910129  0.124819
    H   H100  0.421517  0.854051  0.522728  0.130477
    H   H101  0.233510  0.890519  0.567056  0.154701
    H   H102  0.259831  0.886666  0.473494  0.124009
    H   H103  0.337414  0.808070  0.671388  -0.031257
    H   H104  0.352402  0.872910  0.693873  -0.024625
    H   H105  0.302480  0.802480  0.762049  0.108485
    H   H106  0.283697  0.869679  0.757506  0.154198
    H   H107  0.246877  0.819766  0.723225  0.234056
    H   H108  0.460111  0.901076  0.342203  0.156831
    H   H109  0.411589  0.844337  0.289767  0.118924
    H   H110  0.288809  0.829247  0.410129  0.124819
    H   H111  0.604051  0.328483  0.772728  0.128508
    H   H112  0.640519  0.516490  0.817056  0.157360
    H   H113  0.636666  0.490169  0.723494  0.112990
    H   H114  0.558070  0.412586  0.921388  -0.007125
    H   H115  0.622910  0.397598  0.943873  -0.007990
    H   H116  0.552480  0.447520  0.012049  0.108712
    H   H117  0.619679  0.466303  0.007506  0.164046
    H   H118  0.569766  0.503123  0.973225  0.229889
    H   H119  0.651076  0.289889  0.592203  0.188221
    H   H120  0.594337  0.338411  0.539767  0.096693
    H   H121  0.579247  0.461191  0.660129  0.139481
    H   H122  0.895949  0.671517  0.272728  0.128496
    H   H123  0.859481  0.483510  0.317056  0.157408
    H   H124  0.863334  0.509831  0.223494  0.112974
    H   H125  0.941930  0.587414  0.421388  -0.007069
    H   H126  0.877090  0.602402  0.443873  -0.007943
    H   H127  0.947520  0.552480  0.512049  0.108689
    H   H128  0.880321  0.533697  0.507506  0.164023
    H   H129  0.930234  0.496877  0.473225  0.229829
    H   H130  0.848924  0.710111  0.092203  0.188219
    H   H131  0.905663  0.661589  0.039767  0.096695
    H   H132  0.920753  0.538809  0.160129  0.139476
    H   H133  0.421517  0.145949  0.477272  0.130475
    H   H134  0.233510  0.109481  0.432944  0.154704
    H   H135  0.259831  0.113334  0.526506  0.124006
    H   H136  0.337414  0.191930  0.328612  -0.031257
    H   H137  0.352402  0.127090  0.306127  -0.024627
    H   H138  0.302480  0.197520  0.237951  0.108482
    H   H139  0.283697  0.130321  0.242494  0.154202
    H   H140  0.246877  0.180234  0.276775  0.234059
    H   H141  0.460111  0.098924  0.657797  0.156839
    H   H142  0.411589  0.155663  0.710233  0.118919
    H   H143  0.288809  0.170753  0.589871  0.124812
    H   H144  0.078483  0.854051  0.977272  0.130482
    H   H145  0.266490  0.890519  0.932944  0.154634
    H   H146  0.240169  0.886666  0.026506  0.124033
    H   H147  0.162586  0.808070  0.828612  -0.031235
    H   H148  0.147598  0.872910  0.806127  -0.024606
    H   H149  0.197520  0.802480  0.737951  0.108491
    H   H150  0.216303  0.869679  0.742494  0.154202
    H   H151  0.253123  0.819766  0.776775  0.234054
    H   H152  0.039889  0.901076  0.157797  0.156823
    H   H153  0.088411  0.844337  0.210233  0.118922
    H   H154  0.211191  0.829247  0.089871  0.124820
    H   H155  0.895949  0.328483  0.727272  0.128504
    H   H156  0.859481  0.516490  0.682944  0.157431
    H   H157  0.863334  0.490169  0.776506  0.112968
    H   H158  0.941930  0.412586  0.578612  -0.007155
    H   H159  0.877090  0.397598  0.556127  -0.008010
    H   H160  0.947520  0.447520  0.487951  0.108703
    H   H161  0.880321  0.466303  0.492494  0.164015
    H   H162  0.930234  0.503123  0.526775  0.229854
    H   H163  0.848924  0.289889  0.907797  0.188220
    H   H164  0.905663  0.338411  0.960233  0.096691
    H   H165  0.920753  0.461191  0.839871  0.139471
    H   H166  0.604051  0.671517  0.227272  0.128503
    H   H167  0.640519  0.483510  0.182944  0.157431
    H   H168  0.636666  0.509831  0.276506  0.112966
    H   H169  0.558070  0.587414  0.078612  -0.007145
    H   H170  0.622910  0.602402  0.056127  -0.008008
    H   H171  0.552480  0.552480  0.987951  0.108706
    H   H172  0.619679  0.533697  0.992494  0.164045
    H   H173  0.569766  0.496877  0.026775  0.229882
    H   H174  0.651076  0.710111  0.407797  0.188216
    H   H175  0.594337  0.661589  0.460233  0.096696
    H   H176  0.579247  0.538809  0.339871  0.139478
    O   O1    0.053778  0.008309  0.932255  -0.609884
    O   O2    0.053778  0.508309  0.067745  -0.549882
    O   O3    0.053778  0.567745  0.008309  -0.542535
    O   O4    0.053778  0.432255  0.991691  -0.542529
    O   O5    0.053778  0.491691  0.932255  -0.549880
    O   O6    0.946222  0.432255  0.991691  -0.542536
    O   O7    0.946222  0.491691  0.932255  -0.549885
    O   O8    0.946222  0.508309  0.067745  -0.549889
    O   O9    0.946222  0.567745  0.008309  -0.542541
    O   O10   0.789354  0.867014  0.856402  -0.361370
    O   O11   0.053778  0.991691  0.067745  -0.609871
    O   O12   0.053778  0.932255  0.008309  -0.472628
    O   O13   0.710646  0.132986  0.356402  -0.361308
    O   O14   0.553778  0.008309  0.567745  -0.609871
    O   O15   0.382986  0.539354  0.106402  -0.345459
    O   O16   0.553778  0.067745  0.508309  -0.472624
    O   O17   0.117014  0.460646  0.606402  -0.345388
    O   O18   0.553778  0.932255  0.491691  -0.472614
    O   O19   0.553778  0.991691  0.432255  -0.609870
    O   O20   0.710646  0.867014  0.643598  -0.361308
    O   O21   0.446222  0.932255  0.491691  -0.472604
    O   O22   0.446222  0.991691  0.432255  -0.609870
    O   O23   0.789354  0.132986  0.143598  -0.361376
    O   O24   0.446222  0.008309  0.567745  -0.609874
    O   O25   0.446222  0.067745  0.508309  -0.472617
    O   O26   0.117014  0.539354  0.393598  -0.345470
    O   O27   0.946222  0.991691  0.067745  -0.609882
    O   O28   0.382986  0.460646  0.893598  -0.345459
    O   O29   0.258309  0.696222  0.317745  -0.607863
    O   O30   0.317745  0.696222  0.258309  -0.394232
    O   O31   0.210646  0.132986  0.143598  -0.361373
    O   O32   0.182255  0.696222  0.241691  -0.394226
    O   O33   0.241691  0.696222  0.182255  -0.607859
    O   O34   0.289354  0.867014  0.643598  -0.361372
    O   O35   0.182255  0.803778  0.241691  -0.611717
    O   O36   0.241691  0.803778  0.182255  -0.541030
    O   O37   0.617014  0.460646  0.893598  -0.345392
    O   O38   0.946222  0.932255  0.008309  -0.472633
    O   O39   0.258309  0.803778  0.317745  -0.541028
    O   O40   0.317745  0.803778  0.258309  -0.611720
    O   O41   0.882986  0.539354  0.393598  -0.345298
    O   O42   0.289354  0.132986  0.356402  -0.361374
    O   O43   0.241691  0.303778  0.817745  -0.607859
    O   O44   0.182255  0.303778  0.758309  -0.394235
    O   O45   0.210646  0.867014  0.856402  -0.361305
    O   O46   0.317745  0.303778  0.741691  -0.394235
    O   O47   0.258309  0.303778  0.682255  -0.607869
    O   O48   0.882986  0.460646  0.606402  -0.345459
    O   O49   0.317745  0.196222  0.741691  -0.611708
    O   O50   0.258309  0.196222  0.682255  -0.541027
    O   O51   0.617014  0.539354  0.106402  -0.345455
    O   O52   0.241691  0.196222  0.817745  -0.541025
    O   O53   0.182255  0.196222  0.758309  -0.611721
    O   O54   0.741691  0.303778  0.682255  -0.607860
    O   O55   0.946222  0.067745  0.991691  -0.472635
    O   O56   0.682255  0.303778  0.741691  -0.394230
    O   O57   0.817745  0.303778  0.758309  -0.394240
    O   O58   0.758309  0.303778  0.817745  -0.607868
    O   O59   0.817745  0.196222  0.758309  -0.611719
    O   O60   0.758309  0.196222  0.817745  -0.541029
    O   O61   0.741691  0.196222  0.682255  -0.541025
    O   O62   0.682255  0.196222  0.741691  -0.611708
    O   O63   0.946222  0.008309  0.932255  -0.609893
    O   O64   0.758309  0.696222  0.182255  -0.607869
    O   O65   0.817745  0.696222  0.241691  -0.394232
    O   O66   0.682255  0.696222  0.258309  -0.394222
    O   O67   0.741691  0.696222  0.317745  -0.607853
    O   O68   0.682255  0.803778  0.258309  -0.611722
    O   O69   0.741691  0.803778  0.317745  -0.541027
    O   O70   0.758309  0.803778  0.182255  -0.541030
    O   O71   0.817745  0.803778  0.241691  -0.611716
    O   O72   0.446222  0.491691  0.567745  -0.549871
    O   O73   0.446222  0.432255  0.508309  -0.542527
    O   O74   0.053778  0.067745  0.991691  -0.472627
    O   O75   0.446222  0.567745  0.491691  -0.542523
    O   O76   0.446222  0.508309  0.432255  -0.549876
    O   O77   0.553778  0.567745  0.491691  -0.542525
    O   O78   0.553778  0.508309  0.432255  -0.549878
    O   O79   0.553778  0.491691  0.567745  -0.549877
    O   O80   0.553778  0.432255  0.508309  -0.542532
