# Generated by REPEAT Assigner based on pymatgen
data_DB13-nbo-Syn039732
_audit_creation_date              2022-05-24
_audit_creation_method            REPEAT_Assigner
_cell_length_a                    22.188300
_cell_length_b                    22.188300
_cell_length_c                    22.188300
_cell_angle_alpha                 90.000000
_cell_angle_beta                  90.000000
_cell_angle_gamma                 90.000000
_cell_volume                      10923.758431
_symmetry_space_group_name_H-M    P1
_symmetry_Int_Tables_number       1
loop_
    _symmetry_equiv_pos_site_id
    _symmetry_equiv_pos_as_xyz
    1  x,y,z
loop_
    _atom_site_type_symbol
    _atom_site_label
    _atom_site_fract_x
    _atom_site_fract_y
    _atom_site_fract_z
    _atom_type_partial_charge
    Cu  Cu1   0.940165  0.500000  0.500000  0.979893
    Cu  Cu2   0.059835  0.500000  0.500000  0.980152
    C   C1    0.000000  0.500000  0.386338  0.982065
    O   O1    0.047618  0.500000  0.413830  -0.696991
    O   O2    0.952382  0.500000  0.413830  -0.635798
    C   C2    0.000000  0.386338  0.500000  0.992237
    O   O3    0.047618  0.413830  0.500000  -0.689873
    O   O4    0.952382  0.413830  0.500000  -0.631696
    C   C3    0.000000  0.500000  0.613662  0.992569
    O   O5    0.047618  0.500000  0.586170  -0.640603
    O   O6    0.952382  0.500000  0.586170  -0.688649
    C   C4    0.000000  0.613662  0.500000  0.990410
    O   O7    0.047618  0.586170  0.500000  -0.633340
    O   O8    0.952382  0.586170  0.500000  -0.702564
    Cu  Cu3   0.500000  0.940165  0.500000  0.979847
    Cu  Cu4   0.500000  0.059835  0.500000  0.980056
    C   C5    0.386338  0.000000  0.500000  0.992179
    O   O9    0.413830  0.047618  0.500000  -0.689866
    O   O10   0.413830  0.952382  0.500000  -0.631683
    C   C6    0.500000  0.000000  0.386338  0.992505
    O   O11   0.500000  0.047618  0.413830  -0.640619
    O   O12   0.500000  0.952382  0.413830  -0.688630
    C   C7    0.613662  0.000000  0.500000  0.990336
    O   O13   0.586170  0.047618  0.500000  -0.633337
    O   O14   0.586170  0.952382  0.500000  -0.702545
    C   C8    0.500000  0.000000  0.613662  0.981982
    O   O15   0.500000  0.047618  0.586170  -0.696970
    O   O16   0.500000  0.952382  0.586170  -0.635786
    Cu  Cu5   0.500000  0.500000  0.940165  0.980852
    Cu  Cu6   0.500000  0.500000  0.059835  0.980839
    C   C9    0.500000  0.386338  0.000000  0.990708
    O   O17   0.500000  0.413830  0.047618  -0.689213
    O   O18   0.500000  0.413830  0.952382  -0.635362
    C   C10   0.386338  0.500000  0.000000  0.990712
    O   O19   0.413830  0.500000  0.047618  -0.635375
    O   O20   0.413830  0.500000  0.952382  -0.689181
    C   C11   0.500000  0.613662  0.000000  0.983438
    O   O21   0.500000  0.586170  0.047618  -0.639765
    O   O22   0.500000  0.586170  0.952382  -0.696245
    C   C12   0.613662  0.500000  0.000000  0.983424
    O   O23   0.586170  0.500000  0.047618  -0.696276
    O   O24   0.586170  0.500000  0.952382  -0.639721
    Cu  Cu7   0.440165  0.000000  0.000000  1.011806
    Cu  Cu8   0.559835  0.000000  0.000000  0.829079
    C   C13   0.500000  0.000000  0.886338  0.832331
    O   O25   0.547618  0.000000  0.913830  -0.551629
    O   O26   0.452382  0.000000  0.913830  -0.662714
    C   C14   0.500000  0.886338  0.000000  0.836015
    O   O27   0.547618  0.913830  0.000000  -0.551764
    O   O28   0.452382  0.913830  0.000000  -0.661892
    C   C15   0.500000  0.000000  0.113662  0.832276
    O   O29   0.547618  0.000000  0.086170  -0.550238
    O   O30   0.452382  0.000000  0.086170  -0.661687
    C   C16   0.500000  0.113662  0.000000  0.827999
    O   O31   0.547618  0.086170  0.000000  -0.550134
    O   O32   0.452382  0.086170  0.000000  -0.662626
    Cu  Cu9   0.000000  0.440165  0.000000  1.011825
    Cu  Cu10  0.000000  0.559835  0.000000  0.829050
    C   C17   0.886338  0.500000  0.000000  0.836011
    O   O33   0.913830  0.547618  0.000000  -0.551777
    O   O34   0.913830  0.452382  0.000000  -0.661899
    C   C18   0.000000  0.500000  0.886338  0.832272
    O   O35   0.000000  0.547618  0.913830  -0.550236
    O   O36   0.000000  0.452382  0.913830  -0.661694
    C   C19   0.113662  0.500000  0.000000  0.827994
    O   O37   0.086170  0.547618  0.000000  -0.550140
    O   O38   0.086170  0.452382  0.000000  -0.662634
    C   C20   0.000000  0.500000  0.113662  0.832302
    O   O39   0.000000  0.547618  0.086170  -0.551638
    O   O40   0.000000  0.452382  0.086170  -0.662720
    Cu  Cu11  0.000000  0.000000  0.440165  0.924387
    Cu  Cu12  0.000000  0.000000  0.559835  0.924348
    C   C21   0.000000  0.886338  0.500000  0.837443
    O   O41   0.000000  0.913830  0.547618  -0.652282
    O   O42   0.000000  0.913830  0.452382  -0.565725
    C   C22   0.886338  0.000000  0.500000  0.837437
    O   O43   0.913830  0.000000  0.547618  -0.565738
    O   O44   0.913830  0.000000  0.452382  -0.652264
    C   C23   0.000000  0.113662  0.500000  0.830727
    O   O45   0.000000  0.086170  0.547618  -0.652627
    O   O46   0.000000  0.086170  0.452382  -0.563938
    C   C24   0.113662  0.000000  0.500000  0.830730
    O   O47   0.086170  0.000000  0.547618  -0.563947
    O   O48   0.086170  0.000000  0.452382  -0.652611
    C   C25   0.815097  0.361603  0.314966  -0.366209
    C   C26   0.868407  0.384486  0.280933  0.469744
    C   C27   0.867326  0.353105  0.222611  -0.404882
    C   C28   0.903321  0.426809  0.307210  -0.707502
    H   H1    0.813986  0.313986  0.315865  0.089618
    H   H2    0.814504  0.371153  0.361590  0.091378
    H   H3    0.775571  0.383137  0.295783  0.089365
    H   H4    0.865516  0.301630  0.227848  0.097137
    H   H5    0.904674  0.358164  0.194866  0.112145
    H   H6    0.828996  0.368048  0.196369  0.095531
    H   H7    0.892270  0.431964  0.352475  0.229760
    C   C29   0.997746  0.505672  0.183418  -0.091518
    C   C30   0.956458  0.467073  0.214492  -0.419679
    C   C31   0.952573  0.468025  0.276597  0.566199
    C   C32   0.993771  0.501100  0.312293  -0.435706
    C   C33   0.034138  0.539892  0.281078  -0.053131
    C   C34   0.039049  0.541700  0.217783  0.148576
    N   N1    0.076131  0.589055  0.195368  -0.648997
    H   H8    0.930418  0.439572  0.183111  0.197533
    H   H9    0.065619  0.568671  0.306140  0.113947
    H   H10   0.089063  0.582621  0.149979  0.274466
    H   H11   0.110104  0.598963  0.223268  0.324592
    C   C35   0.184903  0.361603  0.685034  -0.399574
    C   C36   0.131593  0.384486  0.719067  0.473918
    C   C37   0.132674  0.353105  0.777389  -0.429860
    C   C38   0.096679  0.426809  0.692790  -0.740728
    H   H12   0.186014  0.313986  0.684135  0.096400
    H   H13   0.185496  0.371153  0.638410  0.085075
    H   H14   0.224429  0.383137  0.704217  0.111736
    H   H15   0.134484  0.301630  0.772152  0.109912
    H   H16   0.095326  0.358164  0.805134  0.114983
    H   H17   0.171004  0.368048  0.803631  0.111649
    H   H18   0.107730  0.431964  0.647525  0.258101
    C   C39   0.002254  0.505672  0.816582  -0.096405
    C   C40   0.043542  0.467073  0.785508  -0.417959
    C   C41   0.047427  0.468025  0.723403  0.596203
    C   C42   0.006229  0.501100  0.687707  -0.457276
    C   C43   0.965862  0.539892  0.718922  -0.050338
    C   C44   0.960951  0.541700  0.782217  0.149877
    N   N2    0.923869  0.589055  0.804632  -0.648398
    H   H19   0.069582  0.439572  0.816889  0.194937
    H   H20   0.934381  0.568671  0.693860  0.113953
    H   H21   0.910937  0.582621  0.850021  0.272780
    H   H22   0.889896  0.598963  0.776732  0.323225
    C   C45   0.314966  0.815097  0.361603  -0.406071
    C   C46   0.280933  0.868407  0.384486  0.495521
    C   C47   0.222611  0.867326  0.353105  -0.448307
    C   C48   0.307210  0.903321  0.426809  -0.742555
    H   H23   0.315865  0.813986  0.313986  0.097631
    H   H24   0.361590  0.814504  0.371153  0.093839
    H   H25   0.295783  0.775571  0.383137  0.106024
    H   H26   0.227848  0.865516  0.301630  0.105528
    H   H27   0.194866  0.904674  0.358164  0.114823
    H   H28   0.196369  0.828996  0.368048  0.120005
    H   H29   0.352475  0.892270  0.431964  0.247161
    C   C49   0.183418  0.997746  0.505672  -0.076903
    C   C50   0.214492  0.956458  0.467073  -0.427683
    C   C51   0.276597  0.952573  0.468025  0.619514
    C   C52   0.312293  0.993771  0.501100  -0.480993
    C   C53   0.281078  0.034138  0.539892  -0.023700
    C   C54   0.217783  0.039049  0.541700  0.102271
    N   N3    0.195368  0.076131  0.589055  -0.619453
    H   H30   0.183111  0.930418  0.439572  0.199191
    H   H31   0.306140  0.065619  0.568671  0.113279
    H   H32   0.149979  0.089063  0.582621  0.268758
    H   H33   0.223268  0.110104  0.598963  0.310616
    C   C55   0.685034  0.184903  0.361603  -0.417816
    C   C56   0.719067  0.131593  0.384486  0.513062
    C   C57   0.777389  0.132674  0.353105  -0.479982
    C   C58   0.692790  0.096679  0.426809  -0.730498
    H   H34   0.684135  0.186014  0.313986  0.102828
    H   H35   0.638410  0.185496  0.371153  0.095859
    H   H36   0.704217  0.224429  0.383137  0.108708
    H   H37   0.772152  0.134484  0.301630  0.116281
    H   H38   0.805134  0.095326  0.358164  0.117264
    H   H39   0.803631  0.171004  0.368048  0.136832
    H   H40   0.647525  0.107730  0.431964  0.237183
    C   C59   0.816582  0.002254  0.505672  -0.074531
    C   C60   0.785508  0.043542  0.467073  -0.420732
    C   C61   0.723403  0.047427  0.468025  0.603524
    C   C62   0.687707  0.006229  0.501100  -0.471204
    C   C63   0.718922  0.965862  0.539892  -0.025754
    C   C64   0.782217  0.960951  0.541700  0.093262
    N   N4    0.804632  0.923869  0.589055  -0.605241
    H   H41   0.816889  0.069582  0.439572  0.192197
    H   H42   0.693860  0.934381  0.568671  0.115309
    H   H43   0.850021  0.910937  0.582621  0.261205
    H   H44   0.776732  0.889896  0.598963  0.305319
    C   C65   0.361603  0.314966  0.815097  -0.380833
    C   C66   0.384486  0.280933  0.868407  0.466753
    C   C67   0.353105  0.222611  0.867326  -0.404917
    C   C68   0.426809  0.307210  0.903321  -0.734068
    H   H45   0.313986  0.315865  0.813986  0.091995
    H   H46   0.371153  0.361590  0.814504  0.087818
    H   H47   0.383137  0.295783  0.775571  0.099597
    H   H48   0.301630  0.227848  0.865516  0.099007
    H   H49   0.358164  0.194866  0.904674  0.112012
    H   H50   0.368048  0.196369  0.828996  0.096112
    H   H51   0.431964  0.352475  0.892270  0.249911
    C   C69   0.505672  0.183418  0.997746  -0.086989
    C   C70   0.467073  0.214492  0.956458  -0.430634
    C   C71   0.468025  0.276597  0.952573  0.599614
    C   C72   0.501100  0.312293  0.993771  -0.460073
    C   C73   0.539892  0.281078  0.034138  -0.044236
    C   C74   0.541700  0.217783  0.039049  0.143587
    N   N5    0.589055  0.195368  0.076131  -0.650144
    H   H52   0.439572  0.183111  0.930418  0.201844
    H   H53   0.568671  0.306140  0.065619  0.113111
    H   H54   0.582621  0.149979  0.089063  0.275361
    H   H55   0.598963  0.223268  0.110104  0.324706
    C   C75   0.361603  0.685034  0.184903  -0.401274
    C   C76   0.384486  0.719067  0.131593  0.483514
    C   C77   0.353105  0.777389  0.132674  -0.434165
    C   C78   0.426809  0.692790  0.096679  -0.713741
    H   H56   0.313986  0.684135  0.186014  0.101183
    H   H57   0.371153  0.638410  0.185496  0.092488
    H   H58   0.383137  0.704217  0.224429  0.104217
    H   H59   0.301630  0.772152  0.134484  0.108337
    H   H60   0.358164  0.805134  0.095326  0.115936
    H   H61   0.368048  0.803631  0.171004  0.112299
    H   H62   0.431964  0.647525  0.107730  0.237180
    C   C79   0.505672  0.816582  0.002254  -0.098636
    C   C80   0.467073  0.785508  0.043542  -0.408312
    C   C81   0.468025  0.723403  0.047427  0.561499
    C   C82   0.501100  0.687707  0.006229  -0.431524
    C   C83   0.539892  0.718922  0.965862  -0.058570
    C   C84   0.541700  0.782217  0.960951  0.152690
    N   N6    0.589055  0.804632  0.923869  -0.647542
    H   H63   0.439572  0.816889  0.069582  0.190691
    H   H64   0.568671  0.693860  0.934381  0.114886
    H   H65   0.582621  0.850021  0.910937  0.271731
    H   H66   0.598963  0.776732  0.889896  0.324620
    C   C85   0.361603  0.815097  0.685034  -0.366223
    C   C86   0.384486  0.868407  0.719067  0.469731
    C   C87   0.353105  0.867326  0.777389  -0.404889
    C   C88   0.426809  0.903321  0.692790  -0.707462
    H   H67   0.313986  0.813986  0.684135  0.089630
    H   H68   0.371153  0.814504  0.638410  0.091380
    H   H69   0.383137  0.775571  0.704217  0.089368
    H   H70   0.301630  0.865516  0.772152  0.097138
    H   H71   0.358164  0.904674  0.805134  0.112155
    H   H72   0.368048  0.828996  0.803631  0.095537
    H   H73   0.431964  0.892270  0.647525  0.229755
    C   C89   0.505672  0.997746  0.816582  -0.091581
    C   C90   0.467073  0.956458  0.785508  -0.419606
    C   C91   0.468025  0.952573  0.723403  0.566109
    C   C92   0.501100  0.993771  0.687707  -0.435615
    C   C93   0.539892  0.034138  0.718922  -0.053194
    C   C94   0.541700  0.039049  0.782217  0.148650
    N   N7    0.589055  0.076131  0.804632  -0.649016
    H   H74   0.439572  0.930418  0.816889  0.197512
    H   H75   0.568671  0.065619  0.693860  0.113956
    H   H76   0.582621  0.089063  0.850021  0.274471
    H   H77   0.598963  0.110104  0.776732  0.324597
    C   C95   0.361603  0.184903  0.314966  -0.399610
    C   C96   0.384486  0.131593  0.280933  0.473907
    C   C97   0.353105  0.132674  0.222611  -0.429811
    C   C98   0.426809  0.096679  0.307210  -0.740711
    H   H78   0.313986  0.186014  0.315865  0.096413
    H   H79   0.371153  0.185496  0.361590  0.085082
    H   H80   0.383137  0.224429  0.295783  0.111745
    H   H81   0.301630  0.134484  0.227848  0.109902
    H   H82   0.358164  0.095326  0.194866  0.114976
    H   H83   0.368048  0.171004  0.196369  0.111636
    H   H84   0.431964  0.107730  0.352475  0.258108
    C   C99   0.505672  0.002254  0.183418  -0.096461
    C   C100  0.467073  0.043542  0.214492  -0.417880
    C   C101  0.468025  0.047427  0.276597  0.596117
    C   C102  0.501100  0.006229  0.312293  -0.457176
    C   C103  0.539892  0.965862  0.281078  -0.050423
    C   C104  0.541700  0.960951  0.217783  0.149953
    N   N8    0.589055  0.923869  0.195368  -0.648425
    H   H85   0.439572  0.069582  0.183111  0.194911
    H   H86   0.568671  0.934381  0.306140  0.113976
    H   H87   0.582621  0.910937  0.149979  0.272786
    H   H88   0.598963  0.889896  0.223268  0.323230
    C   C105  0.815097  0.314966  0.638397  -0.406061
    C   C106  0.868407  0.280933  0.615514  0.495527
    C   C107  0.867326  0.222611  0.646895  -0.448323
    C   C108  0.903321  0.307210  0.573191  -0.742564
    H   H89   0.813986  0.315865  0.686014  0.097624
    H   H90   0.814504  0.361590  0.628847  0.093834
    H   H91   0.775571  0.295783  0.616863  0.106021
    H   H92   0.865516  0.227848  0.698370  0.105530
    H   H93   0.904674  0.194866  0.641836  0.114830
    H   H94   0.828996  0.196369  0.631952  0.120007
    H   H95   0.892270  0.352475  0.568036  0.247160
    C   C109  0.997746  0.183418  0.494328  -0.076910
    C   C110  0.956458  0.214492  0.532927  -0.427701
    C   C111  0.952573  0.276597  0.531975  0.619554
    C   C112  0.993771  0.312293  0.498900  -0.481032
    C   C113  0.034138  0.281078  0.460108  -0.023691
    C   C114  0.039049  0.217783  0.458300  0.102285
    N   N9    0.076131  0.195368  0.410945  -0.619454
    H   H96   0.930418  0.183111  0.560428  0.199193
    H   H97   0.065619  0.306140  0.431329  0.113274
    H   H98   0.089063  0.149979  0.417379  0.268758
    H   H99   0.110104  0.223268  0.401037  0.310613
    C   C115  0.184903  0.685034  0.638397  -0.417810
    C   C116  0.131593  0.719067  0.615514  0.513069
    C   C117  0.132674  0.777389  0.646895  -0.479990
    C   C118  0.096679  0.692790  0.573191  -0.730494
    H   H100  0.186014  0.684135  0.686014  0.102830
    H   H101  0.185496  0.638410  0.628847  0.095858
    H   H102  0.224429  0.704217  0.616863  0.108700
    H   H103  0.134484  0.772152  0.698370  0.116282
    H   H104  0.095326  0.805134  0.641836  0.117267
    H   H105  0.171004  0.803631  0.631952  0.136829
    H   H106  0.107730  0.647525  0.568036  0.237174
    C   C119  0.002254  0.816582  0.494328  -0.074534
    C   C120  0.043542  0.785508  0.532927  -0.420749
    C   C121  0.047427  0.723403  0.531975  0.603560
    C   C122  0.006229  0.687707  0.498900  -0.471244
    C   C123  0.965862  0.718922  0.460108  -0.025742
    C   C124  0.960951  0.782217  0.458300  0.093268
    N   N10   0.923869  0.804632  0.410945  -0.605236
    H   H107  0.069582  0.816889  0.560428  0.192199
    H   H108  0.934381  0.693860  0.431329  0.115303
    H   H109  0.910937  0.850021  0.417379  0.261200
    H   H110  0.889896  0.776732  0.401037  0.305316
    C   C125  0.314966  0.361603  0.184903  -0.380824
    C   C126  0.280933  0.384486  0.131593  0.466749
    C   C127  0.222611  0.353105  0.132674  -0.404914
    C   C128  0.307210  0.426809  0.096679  -0.734071
    H   H111  0.315865  0.313986  0.186014  0.091992
    H   H112  0.361590  0.371153  0.185496  0.087815
    H   H113  0.295783  0.383137  0.224429  0.099599
    H   H114  0.227848  0.301630  0.134484  0.099005
    H   H115  0.194866  0.358164  0.095326  0.112007
    H   H116  0.196369  0.368048  0.171004  0.096112
    H   H117  0.352475  0.431964  0.107730  0.249903
    C   C129  0.183418  0.505672  0.002254  -0.086943
    C   C130  0.214492  0.467073  0.043542  -0.430680
    C   C131  0.276597  0.468025  0.047427  0.599662
    C   C132  0.312293  0.501100  0.006229  -0.460121
    C   C133  0.281078  0.539892  0.965862  -0.044170
    C   C134  0.217783  0.541700  0.960951  0.143528
    N   N11   0.195368  0.589055  0.923869  -0.650109
    H   H118  0.183111  0.439572  0.069582  0.201853
    H   H119  0.306140  0.568671  0.934381  0.113100
    H   H120  0.149979  0.582621  0.910937  0.275351
    H   H121  0.223268  0.598963  0.889896  0.324693
    C   C135  0.685034  0.361603  0.815097  -0.401245
    C   C136  0.719067  0.384486  0.868407  0.483524
    C   C137  0.777389  0.353105  0.867326  -0.434197
    C   C138  0.692790  0.426809  0.903321  -0.713776
    H   H122  0.684135  0.313986  0.813986  0.101169
    H   H123  0.638410  0.371153  0.814504  0.092478
    H   H124  0.704217  0.383137  0.775571  0.104220
    H   H125  0.772152  0.301630  0.865516  0.108342
    H   H126  0.805134  0.358164  0.904674  0.115944
    H   H127  0.803631  0.368048  0.828996  0.112310
    H   H128  0.647525  0.431964  0.892270  0.237180
    C   C139  0.816582  0.505672  0.997746  -0.098595
    C   C140  0.785508  0.467073  0.956458  -0.408348
    C   C141  0.723403  0.468025  0.952573  0.561559
    C   C142  0.687707  0.501100  0.993771  -0.431575
    C   C143  0.718922  0.539892  0.034138  -0.058522
    C   C144  0.782217  0.541700  0.039049  0.152636
    N   N12   0.804632  0.589055  0.076131  -0.647539
    H   H129  0.816889  0.439572  0.930418  0.190703
    H   H130  0.693860  0.568671  0.065619  0.114879
    H   H131  0.850021  0.582621  0.089063  0.271733
    H   H132  0.776732  0.598963  0.110104  0.324620
