# Generated by REPEAT Assigner based on pymatgen
data_DB13-nbo-Syn020607
_audit_creation_date              2022-05-24
_audit_creation_method            REPEAT_Assigner
_cell_length_a                    22.483200
_cell_length_b                    22.483200
_cell_length_c                    22.483200
_cell_angle_alpha                 90.000000
_cell_angle_beta                  90.000000
_cell_angle_gamma                 90.000000
_cell_volume                      11365.129046
_symmetry_space_group_name_H-M    P1
_symmetry_Int_Tables_number       1
loop_
    _symmetry_equiv_pos_site_id
    _symmetry_equiv_pos_as_xyz
    1  x,y,z
loop_
    _atom_site_type_symbol
    _atom_site_label
    _atom_site_fract_x
    _atom_site_fract_y
    _atom_site_fract_z
    _atom_type_partial_charge
    C   C1    0.952720  0.462630  0.212249  -0.507130
    C   C2    0.996818  0.491206  0.180947  -0.101260
    C   C3    0.048099  0.524502  0.217421  0.539254
    C   C4    0.050227  0.530083  0.288355  -0.011032
    C   C5    0.006623  0.502519  0.320007  -0.313650
    C   C6    0.958622  0.465539  0.284737  0.634549
    C   C7    0.101367  0.416108  0.816439  0.598780
    C   C8    0.000000  0.612171  0.500000  0.830199
    C   C9    0.156507  0.412493  0.787566  -0.542238
    C   C10   0.194846  0.363880  0.798267  -0.024908
    C   C11   0.181576  0.326207  0.845307  -0.073462
    C   C12   0.133011  0.336959  0.883555  -0.090689
    C   C13   0.093593  0.380924  0.865257  -0.259047
    C   C14   0.178626  0.460058  0.748092  0.697591
    C   C15   0.047280  0.462630  0.787751  -0.491602
    C   C16   0.003182  0.491206  0.819053  -0.116093
    C   C17   0.951901  0.524502  0.782579  0.578862
    C   C18   0.949773  0.530083  0.711645  -0.090053
    C   C19   0.993377  0.502519  0.679993  -0.236650
    C   C20   0.041378  0.465539  0.715263  0.602994
    C   C21   0.183561  0.898633  0.416108  0.498229
    C   C22   0.212434  0.843493  0.412493  -0.588719
    C   C23   0.201733  0.805154  0.363880  0.062509
    C   C24   0.154693  0.818424  0.326207  -0.088828
    C   C25   0.116445  0.866989  0.336959  -0.112019
    C   C26   0.134743  0.906407  0.380924  -0.171720
    C   C27   0.251908  0.821374  0.460058  0.766234
    C   C28   0.212249  0.952720  0.462630  -0.461343
    C   C29   0.180947  0.996818  0.491206  -0.125788
    C   C30   0.217421  0.048099  0.524502  0.532107
    C   C31   0.288355  0.050227  0.530083  -0.005085
    C   C32   0.320007  0.006623  0.502519  -0.317189
    C   C33   0.284737  0.958622  0.465539  0.667623
    C   C34   0.816439  0.101367  0.416108  0.507740
    C   C35   0.387829  0.000000  0.500000  0.797040
    C   C36   0.787566  0.156507  0.412493  -0.575570
    C   C37   0.798267  0.194846  0.363880  0.034242
    C   C38   0.845307  0.181576  0.326207  -0.083998
    C   C39   0.883555  0.133011  0.336959  -0.115659
    C   C40   0.865257  0.093593  0.380924  -0.174401
    C   C41   0.748092  0.178626  0.460058  0.828937
    C   C42   0.787751  0.047280  0.462630  -0.467176
    C   C43   0.819053  0.003182  0.491206  -0.109365
    C   C44   0.782579  0.951901  0.524502  0.486497
    C   C45   0.711645  0.949773  0.530083  0.083156
    C   C46   0.679993  0.993377  0.502519  -0.435325
    C   C47   0.715263  0.041378  0.465539  0.732561
    C   C48   0.416108  0.183561  0.898633  0.614762
    C   C49   0.412493  0.212434  0.843493  -0.559329
    C   C50   0.363880  0.201733  0.805154  -0.050841
    C   C51   0.326207  0.154693  0.818424  -0.027934
    C   C52   0.336959  0.116445  0.866989  -0.119427
    C   C53   0.380924  0.134743  0.906407  -0.257829
    C   C54   0.500000  0.000000  0.387829  0.796347
    C   C55   0.460058  0.251908  0.821374  0.685167
    C   C56   0.000000  0.500000  0.387829  0.810169
    C   C57   0.462630  0.212249  0.952720  -0.509727
    C   C58   0.491206  0.180947  0.996818  -0.106566
    C   C59   0.524502  0.217421  0.048099  0.573430
    C   C60   0.530083  0.288355  0.050227  -0.068661
    C   C61   0.502519  0.320007  0.006623  -0.259399
    C   C62   0.465539  0.284737  0.958622  0.614446
    C   C63   0.416108  0.816439  0.101367  0.606467
    C   C64   0.412493  0.787566  0.156507  -0.518570
    C   C65   0.363880  0.798267  0.194846  -0.058705
    C   C66   0.326207  0.845307  0.181576  -0.035392
    C   C67   0.336959  0.883555  0.133011  -0.099479
    C   C68   0.380924  0.865257  0.093593  -0.275388
    C   C69   0.460058  0.748092  0.178626  0.706149
    C   C70   0.612171  0.000000  0.500000  0.830219
    C   C71   0.462630  0.787751  0.047280  -0.500401
    C   C72   0.491206  0.819053  0.003182  -0.098490
    C   C73   0.524502  0.782579  0.951901  0.526674
    C   C74   0.530083  0.711645  0.949773  0.014522
    C   C75   0.502519  0.679993  0.993377  -0.358744
    C   C76   0.465539  0.715263  0.041378  0.653631
    C   C77   0.416108  0.898633  0.816439  0.625752
    C   C78   0.412493  0.843493  0.787566  -0.541424
    C   C79   0.363880  0.805154  0.798267  -0.060199
    C   C80   0.326207  0.818424  0.845307  -0.035352
    C   C81   0.336959  0.866989  0.883555  -0.108738
    C   C82   0.380924  0.906407  0.865257  -0.279547
    C   C83   0.460058  0.821374  0.748092  0.696148
    C   C84   0.500000  0.000000  0.612171  0.810200
    C   C85   0.462630  0.952720  0.787751  -0.507102
    C   C86   0.491206  0.996818  0.819053  -0.101288
    C   C87   0.524502  0.048099  0.782579  0.539250
    C   C88   0.530083  0.050227  0.711645  -0.011014
    C   C89   0.502519  0.006623  0.679993  -0.313675
    C   C90   0.465539  0.958622  0.715263  0.634549
    C   C91   0.416108  0.101367  0.183561  0.598584
    C   C92   0.412493  0.156507  0.212434  -0.542190
    C   C93   0.363880  0.194846  0.201733  -0.024921
    C   C94   0.326207  0.181576  0.154693  -0.073463
    C   C95   0.336959  0.133011  0.116445  -0.090631
    C   C96   0.380924  0.093593  0.134743  -0.259078
    C   C97   0.460058  0.178626  0.251908  0.697619
    C   C98   0.462630  0.047280  0.212249  -0.490960
    C   C99   0.491206  0.003182  0.180947  -0.116614
    C   C100  0.524502  0.951901  0.217421  0.579092
    C   C101  0.530083  0.949773  0.288355  -0.090268
    C   C102  0.502519  0.993377  0.320007  -0.236383
    C   C103  0.465539  0.041378  0.284737  0.602609
    C   C104  0.898633  0.183561  0.583892  0.498203
    C   C105  0.843493  0.212434  0.587507  -0.588673
    C   C106  0.805154  0.201733  0.636120  0.062480
    C   C107  0.818424  0.154693  0.673793  -0.088782
    C   C108  0.866989  0.116445  0.663041  -0.112053
    C   C109  0.906407  0.134743  0.619076  -0.171682
    C   C110  0.821374  0.251908  0.539942  0.766252
    C   C111  0.500000  0.387829  0.000000  0.810035
    C   C112  0.952720  0.212249  0.537370  -0.461314
    C   C113  0.996818  0.180947  0.508794  -0.125792
    C   C114  0.048099  0.217421  0.475498  0.532065
    C   C115  0.050227  0.288355  0.469917  -0.005017
    C   C116  0.006623  0.320007  0.497481  -0.317219
    C   C117  0.958622  0.284737  0.534461  0.667623
    C   C118  0.101367  0.816439  0.583892  0.507558
    C   C119  0.156507  0.787566  0.587507  -0.575521
    C   C120  0.194846  0.798267  0.636120  0.034237
    C   C121  0.181576  0.845307  0.673793  -0.084002
    C   C122  0.133011  0.883555  0.663041  -0.115599
    C   C123  0.093593  0.865257  0.619076  -0.174448
    C   C124  0.178626  0.748092  0.539942  0.828970
    C   C125  0.047280  0.787751  0.537370  -0.466583
    C   C126  0.003182  0.819053  0.508794  -0.109837
    C   C127  0.951901  0.782579  0.475498  0.486747
    C   C128  0.949773  0.711645  0.469917  0.082963
    C   C129  0.387829  0.500000  0.000000  0.810008
    C   C130  0.993377  0.679993  0.497481  -0.435105
    C   C131  0.041378  0.715263  0.534461  0.732181
    C   C132  0.183561  0.416108  0.101367  0.614729
    C   C133  0.212434  0.412493  0.156507  -0.559321
    C   C134  0.201733  0.363880  0.194846  -0.050836
    C   C135  0.154693  0.326207  0.181576  -0.027936
    C   C136  0.116445  0.336959  0.133011  -0.119434
    C   C137  0.134743  0.380924  0.093593  -0.257809
    C   C138  0.251908  0.460058  0.178626  0.685167
    C   C139  0.212249  0.462630  0.047280  -0.509686
    C   C140  0.180947  0.491206  0.003182  -0.106607
    C   C141  0.217421  0.524502  0.951901  0.573414
    C   C142  0.288355  0.530083  0.949773  -0.068665
    C   C143  0.320007  0.502519  0.993377  -0.259380
    C   C144  0.284737  0.465539  0.041378  0.614438
    C   C145  0.816439  0.416108  0.898633  0.606289
    C   C146  0.500000  0.612171  0.000000  0.849808
    C   C147  0.787566  0.412493  0.843493  -0.518528
    C   C148  0.798267  0.363880  0.805154  -0.058718
    C   C149  0.845307  0.326207  0.818424  -0.035381
    C   C150  0.883555  0.336959  0.866989  -0.099392
    C   C151  0.865257  0.380924  0.906407  -0.275488
    C   C152  0.748092  0.460058  0.821374  0.706178
    C   C153  0.787751  0.462630  0.952720  -0.499699
    C   C154  0.819053  0.491206  0.996818  -0.099054
    C   C155  0.782579  0.524502  0.048099  0.526948
    C   C156  0.711645  0.530083  0.050227  0.014303
    C   C157  0.679993  0.502519  0.006623  -0.358484
    C   C158  0.715263  0.465539  0.958622  0.653203
    C   C159  0.612171  0.500000  0.000000  0.849780
    C   C160  0.500000  0.000000  0.887829  0.793102
    C   C161  0.500000  0.887829  0.000000  0.792406
    C   C162  0.000000  0.387829  0.500000  0.797035
    C   C163  0.500000  0.000000  0.112171  0.789774
    C   C164  0.500000  0.112171  0.000000  0.788375
    C   C165  0.887829  0.500000  0.000000  0.792541
    C   C166  0.000000  0.500000  0.887829  0.789618
    C   C167  0.112171  0.500000  0.000000  0.788415
    C   C168  0.000000  0.500000  0.112171  0.793087
    C   C169  0.000000  0.887829  0.500000  0.849051
    C   C170  0.887829  0.000000  0.500000  0.848950
    C   C171  0.000000  0.112171  0.500000  0.856745
    C   C172  0.000000  0.500000  0.612171  0.796424
    C   C173  0.112171  0.000000  0.500000  0.856835
    C   C174  0.898633  0.416108  0.183561  0.625745
    C   C175  0.843493  0.412493  0.212434  -0.541425
    C   C176  0.805154  0.363880  0.201733  -0.060204
    C   C177  0.818424  0.326207  0.154693  -0.035351
    C   C178  0.866989  0.336959  0.116445  -0.108758
    C   C179  0.906407  0.380924  0.134743  -0.279500
    C   C180  0.821374  0.460058  0.251908  0.696153
    Cl  Cl1   0.106052  0.570725  0.322073  0.021124
    Cl  Cl2   0.893948  0.570725  0.677927  0.079164
    Cl  Cl3   0.322073  0.106052  0.570725  0.007845
    Cl  Cl4   0.677927  0.893948  0.570725  -0.001889
    Cl  Cl5   0.570725  0.322073  0.106052  0.050697
    Cl  Cl6   0.570725  0.677927  0.893948  0.030185
    Cl  Cl7   0.570725  0.106052  0.677927  0.021121
    Cl  Cl8   0.570725  0.893948  0.322073  0.079179
    Cl  Cl9   0.106052  0.322073  0.429275  0.007836
    Cl  Cl10  0.893948  0.677927  0.429275  -0.001867
    Cl  Cl11  0.322073  0.570725  0.893948  0.050690
    Cl  Cl12  0.677927  0.570725  0.106052  0.030209
    Cu  Cu1   0.940950  0.500000  0.500000  0.937526
    Cu  Cu2   0.059050  0.500000  0.500000  0.930703
    Cu  Cu3   0.500000  0.940950  0.500000  0.937532
    Cu  Cu4   0.500000  0.059050  0.500000  0.930697
    Cu  Cu5   0.500000  0.500000  0.940950  0.950610
    Cu  Cu6   0.500000  0.500000  0.059050  0.950602
    Cu  Cu7   0.440950  0.000000  0.000000  0.876307
    Cu  Cu8   0.559050  0.000000  0.000000  1.001829
    Cu  Cu9   0.000000  0.440950  0.000000  0.876305
    Cu  Cu10  0.000000  0.559050  0.000000  1.001827
    Cu  Cu11  0.000000  0.000000  0.440950  0.992928
    Cu  Cu12  0.000000  0.000000  0.559050  0.992927
    H   H1    0.239796  0.359302  0.776334  0.080709
    H   H2    0.211071  0.288929  0.850446  0.089489
    H   H3    0.121898  0.309572  0.922614  0.107521
    H   H4    0.054822  0.382660  0.895988  0.138609
    H   H5    0.267792  0.436043  0.717967  0.248120
    H   H6    0.223666  0.760204  0.359302  0.078682
    H   H7    0.149554  0.788929  0.288929  0.099521
    H   H8    0.077386  0.878102  0.309572  0.125193
    H   H9    0.104012  0.945178  0.382660  0.115882
    H   H10   0.282033  0.732208  0.436043  0.279264
    H   H11   0.776334  0.239796  0.359302  0.070024
    H   H12   0.850446  0.211071  0.288929  0.098611
    H   H13   0.922614  0.121898  0.309572  0.121977
    H   H14   0.895988  0.054822  0.382660  0.120669
    H   H15   0.717967  0.267792  0.436043  0.295246
    H   H16   0.359302  0.223666  0.760204  0.113944
    H   H17   0.288929  0.149554  0.788929  0.073750
    H   H18   0.309572  0.077386  0.878102  0.118782
    H   H19   0.382660  0.104012  0.945178  0.139633
    H   H20   0.436043  0.282033  0.732208  0.252446
    H   H21   0.359302  0.776334  0.239796  0.093462
    H   H22   0.288929  0.850446  0.211071  0.077010
    H   H23   0.309572  0.922614  0.121898  0.107362
    H   H24   0.382660  0.895988  0.054822  0.141382
    H   H25   0.436043  0.717967  0.267792  0.258158
    H   H26   0.359302  0.760204  0.776334  0.123211
    H   H27   0.288929  0.788929  0.850446  0.082082
    H   H28   0.309572  0.878102  0.922614  0.115013
    H   H29   0.382660  0.945178  0.895988  0.141000
    H   H30   0.436043  0.732208  0.717967  0.257519
    H   H31   0.359302  0.239796  0.223666  0.080712
    H   H32   0.288929  0.211071  0.149554  0.089485
    H   H33   0.309572  0.121898  0.077386  0.107505
    H   H34   0.382660  0.054822  0.104012  0.138609
    H   H35   0.436043  0.267792  0.282033  0.248136
    H   H36   0.760204  0.223666  0.640698  0.078679
    H   H37   0.788929  0.149554  0.711071  0.099510
    H   H38   0.878102  0.077386  0.690428  0.125197
    H   H39   0.945178  0.104012  0.617340  0.115861
    H   H40   0.732208  0.282033  0.563957  0.279274
    H   H41   0.239796  0.776334  0.640698  0.070021
    H   H42   0.211071  0.850446  0.711071  0.098608
    H   H43   0.121898  0.922614  0.690428  0.121962
    H   H44   0.054822  0.895988  0.617340  0.120682
    H   H45   0.267792  0.717967  0.563957  0.295279
    H   H46   0.223666  0.359302  0.239796  0.113942
    H   H47   0.149554  0.288929  0.211071  0.073752
    H   H48   0.077386  0.309572  0.121898  0.118782
    H   H49   0.104012  0.382660  0.054822  0.139629
    H   H50   0.282033  0.436043  0.267792  0.252441
    H   H51   0.776334  0.359302  0.760204  0.093463
    H   H52   0.850446  0.288929  0.788929  0.076993
    H   H53   0.922614  0.309572  0.878102  0.107341
    H   H54   0.895988  0.382660  0.945178  0.141404
    H   H55   0.717967  0.436043  0.732208  0.258180
    H   H56   0.760204  0.359302  0.223666  0.123213
    H   H57   0.788929  0.288929  0.149554  0.082083
    H   H58   0.878102  0.309572  0.077386  0.115018
    H   H59   0.945178  0.382660  0.104012  0.140981
    H   H60   0.732208  0.436043  0.282033  0.257519
    N   N1    0.234819  0.464528  0.718335  -0.121513
    N   N2    0.235119  0.512951  0.684507  -0.175556
    N   N3    0.188707  0.543581  0.698761  -0.130157
    N   N4    0.155312  0.513742  0.742144  -0.260739
    N   N5    0.281665  0.765181  0.464528  -0.160913
    N   N6    0.315493  0.764881  0.512951  -0.169708
    N   N7    0.301239  0.811293  0.543581  -0.161882
    N   N8    0.257856  0.844688  0.513742  -0.298177
    N   N9    0.718335  0.234819  0.464528  -0.201523
    N   N10   0.684507  0.235119  0.512951  -0.191439
    N   N11   0.698761  0.188707  0.543581  -0.088712
    N   N12   0.742144  0.155312  0.513742  -0.372255
    N   N13   0.464528  0.281665  0.765181  -0.112542
    N   N14   0.512951  0.315493  0.764881  -0.182897
    N   N15   0.543581  0.301239  0.811293  -0.124259
    N   N16   0.513742  0.257856  0.844688  -0.251244
    N   N17   0.464528  0.718335  0.234819  -0.127956
    N   N18   0.512951  0.684507  0.235119  -0.197858
    N   N19   0.543581  0.698761  0.188707  -0.062391
    N   N20   0.513742  0.742144  0.155312  -0.303776
    N   N21   0.464528  0.765181  0.718335  -0.123112
    N   N22   0.512951  0.764881  0.684507  -0.195173
    N   N23   0.543581  0.811293  0.698761  -0.056360
    N   N24   0.513742  0.844688  0.742144  -0.298818
    N   N25   0.464528  0.234819  0.281665  -0.121571
    N   N26   0.512951  0.235119  0.315493  -0.175533
    N   N27   0.543581  0.188707  0.301239  -0.130173
    N   N28   0.513742  0.155312  0.257856  -0.260736
    N   N29   0.765181  0.281665  0.535472  -0.160946
    N   N30   0.764881  0.315493  0.487049  -0.169695
    N   N31   0.811293  0.301239  0.456419  -0.161894
    N   N32   0.844688  0.257856  0.486258  -0.298171
    N   N33   0.234819  0.718335  0.535472  -0.201629
    N   N34   0.235119  0.684507  0.487049  -0.191393
    N   N35   0.188707  0.698761  0.456419  -0.088753
    N   N36   0.155312  0.742144  0.486258  -0.372214
    N   N37   0.281665  0.464528  0.234819  -0.112535
    N   N38   0.315493  0.512951  0.235119  -0.182900
    N   N39   0.301239  0.543581  0.188707  -0.124252
    N   N40   0.257856  0.513742  0.155312  -0.251254
    N   N41   0.718335  0.464528  0.765181  -0.128027
    N   N42   0.684507  0.512951  0.764881  -0.197830
    N   N43   0.698761  0.543581  0.811293  -0.062410
    N   N44   0.742144  0.513742  0.844688  -0.303768
    N   N45   0.765181  0.464528  0.281665  -0.123116
    N   N46   0.764881  0.512951  0.315493  -0.195171
    N   N47   0.811293  0.543581  0.301239  -0.056365
    N   N48   0.844688  0.513742  0.257856  -0.298813
    O   O1    0.953007  0.500000  0.585039  -0.616240
    O   O2    0.087605  0.549046  0.191792  -0.432864
    O   O3    0.925270  0.433792  0.314024  -0.430313
    O   O4    0.046993  0.585039  0.500000  -0.538199
    O   O5    0.912395  0.549046  0.808208  -0.442292
    O   O6    0.953007  0.585039  0.500000  -0.540268
    O   O7    0.074730  0.433792  0.685976  -0.407362
    O   O8    0.191792  0.087605  0.549046  -0.430345
    O   O9    0.314024  0.925270  0.433792  -0.426694
    O   O10   0.414961  0.046993  0.500000  -0.571931
    O   O11   0.808208  0.912395  0.549046  -0.401365
    O   O12   0.414961  0.953007  0.500000  -0.525741
    O   O13   0.685976  0.074730  0.433792  -0.450893
    O   O14   0.500000  0.046993  0.414961  -0.539360
    O   O15   0.549046  0.191792  0.087605  -0.445731
    O   O16   0.433792  0.314024  0.925270  -0.415181
    O   O17   0.500000  0.953007  0.414961  -0.616222
    O   O18   0.549046  0.808208  0.912395  -0.425419
    O   O19   0.585039  0.046993  0.500000  -0.538205
    O   O20   0.433792  0.685976  0.074730  -0.434444
    O   O21   0.585039  0.953007  0.500000  -0.540271
    O   O22   0.549046  0.087605  0.808208  -0.432867
    O   O23   0.433792  0.925270  0.685976  -0.430313
    O   O24   0.500000  0.046993  0.585039  -0.589003
    O   O25   0.500000  0.953007  0.585039  -0.538560
    O   O26   0.549046  0.912395  0.191792  -0.442292
    O   O27   0.433792  0.074730  0.314024  -0.407305
    O   O28   0.046993  0.500000  0.414961  -0.588998
    O   O29   0.087605  0.191792  0.450954  -0.430350
    O   O30   0.925270  0.314024  0.566208  -0.426712
    O   O31   0.500000  0.414961  0.046993  -0.611741
    O   O32   0.500000  0.414961  0.953007  -0.543361
    O   O33   0.912395  0.808208  0.450954  -0.401405
    O   O34   0.074730  0.685976  0.566208  -0.450828
    O   O35   0.414961  0.500000  0.046993  -0.543344
    O   O36   0.414961  0.500000  0.953007  -0.611736
    O   O37   0.191792  0.549046  0.912395  -0.445703
    O   O38   0.314024  0.433792  0.074730  -0.415179
    O   O39   0.500000  0.585039  0.046993  -0.539843
    O   O40   0.808208  0.549046  0.087605  -0.425457
    O   O41   0.500000  0.585039  0.953007  -0.600097
    O   O42   0.685976  0.433792  0.925270  -0.434380
    O   O43   0.953007  0.500000  0.414961  -0.538553
    O   O44   0.585039  0.500000  0.046993  -0.600089
    O   O45   0.585039  0.500000  0.953007  -0.539837
    O   O46   0.546993  0.000000  0.914961  -0.594359
    O   O47   0.453007  0.000000  0.914961  -0.561139
    O   O48   0.546993  0.914961  0.000000  -0.589172
    O   O49   0.453007  0.914961  0.000000  -0.560079
    O   O50   0.546993  0.000000  0.085039  -0.590247
    O   O51   0.453007  0.000000  0.085039  -0.557844
    O   O52   0.546993  0.085039  0.000000  -0.594639
    O   O53   0.453007  0.085039  0.000000  -0.561373
    O   O54   0.914961  0.546993  0.000000  -0.589182
    O   O55   0.046993  0.414961  0.500000  -0.571935
    O   O56   0.914961  0.453007  0.000000  -0.560067
    O   O57   0.000000  0.546993  0.914961  -0.590220
    O   O58   0.000000  0.453007  0.914961  -0.557843
    O   O59   0.085039  0.546993  0.000000  -0.594651
    O   O60   0.085039  0.453007  0.000000  -0.561379
    O   O61   0.000000  0.546993  0.085039  -0.594360
    O   O62   0.000000  0.453007  0.085039  -0.561140
    O   O63   0.953007  0.414961  0.500000  -0.525723
    O   O64   0.000000  0.914961  0.546993  -0.602774
    O   O65   0.000000  0.914961  0.453007  -0.632683
    O   O66   0.914961  0.000000  0.546993  -0.632675
    O   O67   0.914961  0.000000  0.453007  -0.602788
    O   O68   0.000000  0.085039  0.546993  -0.601565
    O   O69   0.000000  0.085039  0.453007  -0.641011
    O   O70   0.085039  0.000000  0.546993  -0.641068
    O   O71   0.085039  0.000000  0.453007  -0.601620
    O   O72   0.046993  0.500000  0.585039  -0.539390
