# Generated by REPEAT Assigner based on pymatgen
data_DB13-lvt-Syn027554
_audit_creation_date              2022-05-24
_audit_creation_method            REPEAT_Assigner
_cell_length_a                    26.077200
_cell_length_b                    26.077200
_cell_length_c                    23.988000
_cell_angle_alpha                 90.000000
_cell_angle_beta                  90.000000
_cell_angle_gamma                 90.000000
_cell_volume                      16312.328392
_symmetry_space_group_name_H-M    P1
_symmetry_Int_Tables_number       1
loop_
    _symmetry_equiv_pos_site_id
    _symmetry_equiv_pos_as_xyz
    1  x,y,z
loop_
    _atom_site_type_symbol
    _atom_site_label
    _atom_site_fract_x
    _atom_site_fract_y
    _atom_site_fract_z
    _atom_type_partial_charge
    C   C1    0.078400  0.538341  0.052567  0.790706
    C   C2    0.078400  0.441630  0.947433  0.793324
    C   C3    0.941630  0.441630  0.947433  0.790414
    C   C4    0.941630  0.538341  0.052567  0.792687
    C   C5    0.078400  0.941630  0.052567  0.695613
    C   C6    0.839227  0.838742  0.828843  -0.379441
    C   C7    0.837965  0.851841  0.888715  0.702920
    C   C8    0.796748  0.855127  0.923717  -0.443598
    C   C9    0.803228  0.865423  0.980438  0.046433
    C   C10   0.851899  0.870278  0.004356  -0.264455
    C   C11   0.890846  0.866940  0.964388  0.473792
    C   C12   0.862657  0.871784  0.063842  0.164991
    C   C13   0.909421  0.896319  0.086601  -0.126562
    C   C14   0.926873  0.880863  0.141680  -0.152671
    C   C15   0.898611  0.850471  0.177319  -0.089173
    C   C16   0.847778  0.836351  0.162208  -0.033755
    C   C17   0.831950  0.847304  0.105610  -0.200064
    C   C18   0.680802  0.141229  0.328843  -0.377341
    C   C19   0.682065  0.128130  0.388715  0.706336
    C   C20   0.723282  0.124844  0.423717  -0.448145
    C   C21   0.716801  0.114547  0.480438  0.049634
    C   C22   0.668130  0.109693  0.504356  -0.261179
    C   C23   0.629184  0.113031  0.464388  0.470755
    C   C24   0.657373  0.108187  0.563842  0.158016
    C   C25   0.610609  0.083651  0.586601  -0.121385
    C   C26   0.593156  0.099107  0.641680  -0.151651
    C   C27   0.621419  0.129499  0.677319  -0.092374
    C   C28   0.672251  0.143619  0.662208  -0.033516
    C   C29   0.688079  0.132666  0.605610  -0.197125
    C   C30   0.411258  0.569198  0.078843  -0.403524
    C   C31   0.398159  0.567935  0.138715  0.699829
    C   C32   0.394873  0.526718  0.173717  -0.422913
    C   C33   0.384577  0.533199  0.230438  0.025403
    C   C34   0.578400  0.038341  0.552567  0.691061
    C   C35   0.379722  0.581870  0.254356  -0.234040
    C   C36   0.383060  0.620816  0.214388  0.441069
    C   C37   0.378216  0.592627  0.313842  0.154477
    C   C38   0.353681  0.639391  0.336601  -0.107254
    C   C39   0.369137  0.656844  0.391680  -0.152448
    C   C40   0.399529  0.628581  0.427319  -0.082178
    C   C41   0.413649  0.577749  0.412208  -0.012687
    C   C42   0.402696  0.561921  0.355610  -0.226852
    C   C43   0.108771  0.410773  0.578843  -0.399965
    C   C44   0.121870  0.412035  0.638715  0.695890
    C   C45   0.125156  0.453252  0.673717  -0.417842
    C   C46   0.135453  0.446772  0.730438  0.022202
    C   C47   0.140307  0.398101  0.754356  -0.234896
    C   C48   0.136969  0.359154  0.714388  0.442275
    C   C49   0.578400  0.941630  0.447433  0.695613
    C   C50   0.141813  0.387343  0.813842  0.156974
    C   C51   0.166349  0.340579  0.836601  -0.107493
    C   C52   0.150893  0.323127  0.891680  -0.153301
    C   C53   0.120501  0.351389  0.927319  -0.081025
    C   C54   0.106381  0.402222  0.912208  -0.013188
    C   C55   0.117334  0.418050  0.855610  -0.227293
    C   C56   0.941630  0.941630  0.052567  0.694683
    C   C57   0.680802  0.838742  0.671157  -0.372348
    C   C58   0.682065  0.851841  0.611285  0.701399
    C   C59   0.723282  0.855127  0.576283  -0.442002
    C   C60   0.716801  0.865423  0.519562  0.047061
    C   C61   0.668130  0.870278  0.495644  -0.269880
    C   C62   0.629184  0.866940  0.535612  0.476557
    C   C63   0.657373  0.871784  0.436158  0.171384
    C   C64   0.610609  0.896319  0.413399  -0.131222
    C   C65   0.593156  0.880863  0.358320  -0.147130
    C   C66   0.621419  0.850471  0.322681  -0.095915
    C   C67   0.672251  0.836351  0.337792  -0.026733
    C   C68   0.688079  0.847304  0.394390  -0.204804
    C   C69   0.441630  0.941630  0.447433  0.694685
    C   C70   0.839227  0.141229  0.171157  -0.382110
    C   C71   0.837965  0.128130  0.111285  0.705355
    C   C72   0.796748  0.124844  0.076283  -0.444512
    C   C73   0.803228  0.114547  0.019562  0.047185
    C   C74   0.851899  0.109693  0.995644  -0.264174
    C   C75   0.890846  0.113031  0.035612  0.474276
    C   C76   0.862657  0.108187  0.936158  0.160192
    C   C77   0.909421  0.083651  0.913399  -0.123381
    C   C78   0.926873  0.099107  0.858320  -0.150501
    C   C79   0.898611  0.129499  0.822681  -0.093151
    C   C80   0.847778  0.143619  0.837792  -0.032557
    C   C81   0.831950  0.132666  0.894390  -0.195804
    C   C82   0.108771  0.569198  0.421157  -0.401694
    C   C83   0.121870  0.567935  0.361285  0.697207
    C   C84   0.125156  0.526718  0.326283  -0.420676
    C   C85   0.135453  0.533199  0.269562  0.022942
    C   C86   0.140307  0.581870  0.245644  -0.232084
    C   C87   0.136969  0.620816  0.285612  0.440297
    C   C88   0.441630  0.038341  0.552567  0.693577
    C   C89   0.141813  0.592627  0.186158  0.155265
    C   C90   0.166349  0.639391  0.163399  -0.110880
    C   C91   0.150893  0.656844  0.108320  -0.152740
    C   C92   0.120501  0.628581  0.072681  -0.078466
    C   C93   0.106381  0.577749  0.087792  -0.013650
    C   C94   0.117334  0.561921  0.144390  -0.225392
    C   C95   0.411258  0.410773  0.921157  -0.401602
    C   C96   0.398159  0.412035  0.861285  0.701820
    C   C97   0.394873  0.453252  0.826283  -0.424758
    C   C98   0.384577  0.446772  0.769562  0.024555
    C   C99   0.379722  0.398101  0.745644  -0.231580
    C   C100  0.383060  0.359154  0.785612  0.440171
    C   C101  0.378216  0.387343  0.686158  0.152883
    C   C102  0.353681  0.340579  0.663399  -0.107595
    C   C103  0.369137  0.323127  0.608320  -0.153671
    C   C104  0.399529  0.351389  0.572681  -0.081331
    C   C105  0.413649  0.402222  0.587792  -0.011592
    C   C106  0.402696  0.418050  0.644390  -0.225342
    C   C107  0.180802  0.141229  0.171157  -0.377343
    C   C108  0.182065  0.128130  0.111285  0.706338
    C   C109  0.223282  0.124844  0.076283  -0.448147
    C   C110  0.216801  0.114547  0.019562  0.049637
    C   C111  0.168130  0.109693  0.995644  -0.261183
    C   C112  0.129184  0.113031  0.035612  0.470757
    C   C113  0.308370  0.671600  0.302567  0.645005
    C   C114  0.157373  0.108187  0.936158  0.158018
    C   C115  0.110609  0.083651  0.913399  -0.121386
    C   C116  0.093156  0.099107  0.858320  -0.151651
    C   C117  0.121419  0.129499  0.822681  -0.092372
    C   C118  0.172251  0.143619  0.837792  -0.033516
    C   C119  0.188079  0.132666  0.894390  -0.197124
    C   C120  0.339227  0.838742  0.671157  -0.379440
    C   C121  0.337965  0.851841  0.611285  0.702918
    C   C122  0.296748  0.855127  0.576283  -0.443598
    C   C123  0.303228  0.865423  0.519562  0.046431
    C   C124  0.351899  0.870278  0.495644  -0.264450
    C   C125  0.390846  0.866940  0.535612  0.473789
    C   C126  0.362657  0.871784  0.436158  0.164986
    C   C127  0.409421  0.896319  0.413399  -0.126558
    C   C128  0.426873  0.880863  0.358320  -0.152674
    C   C129  0.398611  0.850471  0.322681  -0.089170
    C   C130  0.347778  0.836351  0.337792  -0.033761
    C   C131  0.331950  0.847304  0.394390  -0.200060
    C   C132  0.211659  0.671600  0.197433  0.647114
    C   C133  0.608771  0.410773  0.921157  -0.399957
    C   C134  0.621870  0.412035  0.861285  0.695878
    C   C135  0.625156  0.453252  0.826283  -0.417828
    C   C136  0.635453  0.446772  0.769562  0.022199
    C   C137  0.640307  0.398101  0.745644  -0.234896
    C   C138  0.636969  0.359154  0.785612  0.442290
    C   C139  0.641813  0.387343  0.686158  0.156912
    C   C140  0.666349  0.340579  0.663399  -0.107432
    C   C141  0.650893  0.323127  0.608320  -0.153378
    C   C142  0.620501  0.351389  0.572681  -0.080822
    C   C143  0.606381  0.402222  0.587792  -0.013512
    C   C144  0.617334  0.418050  0.644390  -0.227132
    C   C145  0.911258  0.569198  0.421157  -0.403505
    C   C146  0.898159  0.567935  0.361285  0.699826
    C   C147  0.894873  0.526718  0.326283  -0.422916
    C   C148  0.884577  0.533199  0.269562  0.025401
    C   C149  0.879722  0.581870  0.245644  -0.234039
    C   C150  0.883060  0.620816  0.285612  0.441070
    C   C151  0.211659  0.808370  0.197433  0.808191
    C   C152  0.878216  0.592627  0.186158  0.154475
    C   C153  0.853681  0.639391  0.163399  -0.107258
    C   C154  0.869137  0.656844  0.108320  -0.152437
    C   C155  0.899529  0.628581  0.072681  -0.082176
    C   C156  0.913649  0.577749  0.087792  -0.012714
    C   C157  0.902696  0.561921  0.144390  -0.226837
    C   C158  0.339227  0.141229  0.328843  -0.382111
    C   C159  0.337965  0.128130  0.388715  0.705354
    C   C160  0.296748  0.124844  0.423717  -0.444510
    C   C161  0.303228  0.114547  0.480438  0.047182
    C   C162  0.351899  0.109693  0.504356  -0.264169
    C   C163  0.390846  0.113031  0.464388  0.474270
    C   C164  0.362657  0.108187  0.563842  0.160188
    C   C165  0.409421  0.083651  0.586601  -0.123378
    C   C166  0.308370  0.808370  0.302567  0.811833
    C   C167  0.426873  0.099107  0.641680  -0.150504
    C   C168  0.398611  0.129499  0.677319  -0.093149
    C   C169  0.347778  0.143619  0.662208  -0.032560
    C   C170  0.331950  0.132666  0.605610  -0.195803
    C   C171  0.180802  0.838742  0.828843  -0.372348
    C   C172  0.182065  0.851841  0.888715  0.701401
    C   C173  0.223282  0.855127  0.923717  -0.442003
    C   C174  0.216801  0.865423  0.980438  0.047061
    C   C175  0.168130  0.870278  0.004356  -0.269882
    C   C176  0.129184  0.866940  0.964388  0.476558
    C   C177  0.157373  0.871784  0.063842  0.171386
    C   C178  0.110609  0.896319  0.086601  -0.131221
    C   C179  0.093156  0.880863  0.141680  -0.147132
    C   C180  0.121419  0.850471  0.177319  -0.095911
    C   C181  0.172251  0.836351  0.162208  -0.026735
    C   C182  0.188079  0.847304  0.105610  -0.204804
    C   C183  0.911258  0.410773  0.578843  -0.401580
    C   C184  0.898159  0.412035  0.638715  0.701816
    C   C185  0.894873  0.453252  0.673717  -0.424760
    C   C186  0.884577  0.446772  0.730438  0.024554
    C   C187  0.879722  0.398101  0.754356  -0.231578
    C   C188  0.883060  0.359154  0.714388  0.440171
    C   C189  0.878216  0.387343  0.813842  0.152880
    C   C190  0.853681  0.340579  0.836601  -0.107594
    C   C191  0.869137  0.323127  0.891680  -0.153665
    C   C192  0.899529  0.351389  0.927319  -0.081340
    C   C193  0.913649  0.402222  0.912208  -0.011588
    C   C194  0.902696  0.418050  0.855610  -0.225340
    C   C195  0.211659  0.308370  0.802567  0.641863
    C   C196  0.608771  0.569198  0.078843  -0.401688
    C   C197  0.621870  0.567935  0.138715  0.697192
    C   C198  0.625156  0.526718  0.173717  -0.420657
    C   C199  0.635453  0.533199  0.230438  0.022935
    C   C200  0.640307  0.581870  0.254356  -0.232087
    C   C201  0.636969  0.620816  0.214388  0.440315
    C   C202  0.641813  0.592627  0.313842  0.155198
    C   C203  0.666349  0.639391  0.336601  -0.110783
    C   C204  0.650893  0.656844  0.391680  -0.152862
    C   C205  0.620501  0.628581  0.427319  -0.078155
    C   C206  0.606381  0.577749  0.412208  -0.014171
    C   C207  0.617334  0.561921  0.355610  -0.225166
    C   C208  0.308370  0.308370  0.697433  0.645971
    C   C209  0.941630  0.038341  0.947433  0.693575
    C   C210  0.308370  0.171600  0.697433  0.809801
    C   C211  0.211659  0.171600  0.802567  0.812920
    C   C212  0.711659  0.308370  0.697433  0.641845
    C   C213  0.808370  0.308370  0.802567  0.645974
    C   C214  0.808370  0.171600  0.802567  0.809796
    C   C215  0.711659  0.171600  0.697433  0.812925
    C   C216  0.808370  0.671600  0.197433  0.645012
    C   C217  0.711659  0.671600  0.302567  0.647071
    C   C218  0.711659  0.808370  0.302567  0.808196
    C   C219  0.078400  0.038341  0.947433  0.691063
    C   C220  0.808370  0.808370  0.197433  0.811826
    C   C221  0.441630  0.441630  0.552567  0.790439
    C   C222  0.441630  0.538341  0.447433  0.792682
    C   C223  0.578400  0.538341  0.447433  0.791077
    C   C224  0.578400  0.441630  0.552567  0.793506
    Cu  Cu1   0.010015  0.953985  0.960864  0.956173
    Cu  Cu2   0.010015  0.025985  0.039136  0.958749
    Cu  Cu3   0.510015  0.025985  0.460864  0.958753
    Cu  Cu4   0.510015  0.953985  0.539136  0.956179
    Cu  Cu5   0.296015  0.739985  0.210864  0.953694
    Cu  Cu6   0.224015  0.739985  0.289136  0.952856
    Cu  Cu7   0.224015  0.239985  0.710864  0.953048
    Cu  Cu8   0.296015  0.239985  0.789136  0.953872
    Cu  Cu9   0.724015  0.239985  0.789136  0.953048
    Cu  Cu10  0.796015  0.239985  0.710864  0.953872
    Cu  Cu11  0.796015  0.739985  0.289136  0.953692
    Cu  Cu12  0.724015  0.739985  0.210864  0.952854
    Cu  Cu13  0.510015  0.453985  0.460864  0.983147
    Cu  Cu14  0.510015  0.525985  0.539136  0.984801
    Cu  Cu15  0.010015  0.525985  0.960864  0.984765
    Cu  Cu16  0.010015  0.453985  0.039136  0.983135
    H   H1    0.872592  0.826126  0.810530  0.177361
    H   H2    0.809334  0.809334  0.824093  0.129229
    H   H3    0.759321  0.849214  0.904381  0.134185
    H   H4    0.768521  0.862135  0.005968  0.109566
    H   H5    0.928480  0.865602  0.982700  -0.024955
    H   H6    0.964537  0.893592  0.153075  0.149279
    H   H7    0.913417  0.840372  0.218346  0.117030
    H   H8    0.797526  0.831131  0.089800  0.130460
    H   H9    0.647437  0.153844  0.310530  0.176939
    H   H10   0.710695  0.170636  0.324093  0.128198
    H   H11   0.760709  0.130756  0.404381  0.135010
    H   H12   0.751508  0.117836  0.505968  0.108634
    H   H13   0.591550  0.114369  0.482700  -0.022872
    H   H14   0.555493  0.086379  0.653075  0.148870
    H   H15   0.606612  0.139598  0.718346  0.118264
    H   H16   0.722503  0.148839  0.589800  0.130378
    H   H17   0.423874  0.602563  0.060530  0.188301
    H   H18   0.440666  0.539305  0.074093  0.132067
    H   H19   0.400786  0.489291  0.154381  0.129784
    H   H20   0.387865  0.498492  0.255968  0.109489
    H   H21   0.384398  0.658450  0.232700  -0.022434
    H   H22   0.356408  0.694507  0.403075  0.156846
    H   H23   0.409628  0.643388  0.468346  0.107416
    H   H24   0.418869  0.527497  0.339800  0.151518
    H   H25   0.096156  0.377408  0.560530  0.187851
    H   H26   0.079364  0.440666  0.574093  0.131334
    H   H27   0.119244  0.490679  0.654381  0.128478
    H   H28   0.132164  0.481479  0.755968  0.110247
    H   H29   0.135631  0.321520  0.732700  -0.022680
    H   H30   0.163621  0.285463  0.903075  0.156932
    H   H31   0.110402  0.336583  0.968346  0.107015
    H   H32   0.101161  0.452474  0.839800  0.151800
    H   H33   0.647437  0.826126  0.689470  0.175633
    H   H34   0.710695  0.809334  0.675907  0.126807
    H   H35   0.760709  0.849214  0.595619  0.133576
    H   H36   0.751508  0.862135  0.494032  0.109347
    H   H37   0.591550  0.865602  0.517300  -0.025189
    H   H38   0.555493  0.893592  0.346925  0.147893
    H   H39   0.606612  0.840372  0.281654  0.118370
    H   H40   0.722503  0.831131  0.410200  0.131456
    H   H41   0.872592  0.153844  0.189470  0.178726
    H   H42   0.809334  0.170636  0.175907  0.129642
    H   H43   0.759321  0.130756  0.095619  0.134431
    H   H44   0.768521  0.117836  0.994032  0.109483
    H   H45   0.928480  0.114369  0.017300  -0.024048
    H   H46   0.964537  0.086379  0.846925  0.148103
    H   H47   0.913417  0.139598  0.781654  0.118484
    H   H48   0.797526  0.148839  0.910200  0.129560
    H   H49   0.096156  0.602563  0.439470  0.188154
    H   H50   0.079364  0.539305  0.425907  0.131678
    H   H51   0.119244  0.489291  0.345619  0.129345
    H   H52   0.132164  0.498492  0.244032  0.109775
    H   H53   0.135631  0.658450  0.267300  -0.022073
    H   H54   0.163621  0.694507  0.096925  0.156713
    H   H55   0.110402  0.643388  0.031654  0.105764
    H   H56   0.101161  0.527497  0.160200  0.151093
    H   H57   0.423874  0.377408  0.939470  0.187937
    H   H58   0.440666  0.440666  0.925907  0.131141
    H   H59   0.400786  0.490679  0.845619  0.130501
    H   H60   0.387865  0.481479  0.744032  0.110087
    H   H61   0.384398  0.321520  0.767300  -0.022123
    H   H62   0.356408  0.285463  0.596925  0.157054
    H   H63   0.409628  0.336583  0.531654  0.106997
    H   H64   0.418869  0.452474  0.660200  0.150399
    H   H65   0.147437  0.153844  0.189470  0.176940
    H   H66   0.210695  0.170636  0.175907  0.128199
    H   H67   0.260709  0.130756  0.095619  0.135010
    H   H68   0.251508  0.117836  0.994032  0.108634
    H   H69   0.091550  0.114369  0.017300  -0.022873
    H   H70   0.055493  0.086379  0.846925  0.148870
    H   H71   0.106612  0.139598  0.781654  0.118263
    H   H72   0.222503  0.148839  0.910200  0.130377
    H   H73   0.372592  0.826126  0.689470  0.177360
    H   H74   0.309334  0.809334  0.675907  0.129229
    H   H75   0.259321  0.849214  0.595619  0.134185
    H   H76   0.268521  0.862135  0.494032  0.109567
    H   H77   0.428480  0.865602  0.517300  -0.024953
    H   H78   0.464537  0.893592  0.346925  0.149279
    H   H79   0.413417  0.840372  0.281654  0.117029
    H   H80   0.297526  0.831131  0.410200  0.130459
    H   H81   0.596156  0.377408  0.939470  0.187850
    H   H82   0.579364  0.440666  0.925907  0.131332
    H   H83   0.619244  0.490679  0.845619  0.128475
    H   H84   0.632164  0.481479  0.744032  0.110243
    H   H85   0.635631  0.321520  0.767300  -0.022686
    H   H86   0.663621  0.285463  0.596925  0.156938
    H   H87   0.610402  0.336583  0.531654  0.106962
    H   H88   0.601161  0.452474  0.660200  0.151773
    H   H89   0.923874  0.602563  0.439470  0.188297
    H   H90   0.940666  0.539305  0.425907  0.132063
    H   H91   0.900786  0.489291  0.345619  0.129785
    H   H92   0.887865  0.498492  0.244032  0.109491
    H   H93   0.884398  0.658450  0.267300  -0.022434
    H   H94   0.856408  0.694507  0.096925  0.156843
    H   H95   0.909628  0.643388  0.031654  0.107413
    H   H96   0.918869  0.527497  0.160200  0.151509
    H   H97   0.372592  0.153844  0.310530  0.178726
    H   H98   0.309334  0.170636  0.324093  0.129643
    H   H99   0.259321  0.130756  0.404381  0.134431
    H   H100  0.268521  0.117836  0.505968  0.109484
    H   H101  0.428480  0.114369  0.482700  -0.024046
    H   H102  0.464537  0.086379  0.653075  0.148104
    H   H103  0.413417  0.139598  0.718346  0.118484
    H   H104  0.297526  0.148839  0.589800  0.129560
    H   H105  0.147437  0.826126  0.810530  0.175633
    H   H106  0.210695  0.809334  0.824093  0.126807
    H   H107  0.260709  0.849214  0.904381  0.133576
    H   H108  0.251508  0.862135  0.005968  0.109347
    H   H109  0.091550  0.865602  0.982700  -0.025190
    H   H110  0.055493  0.893592  0.153075  0.147893
    H   H111  0.106612  0.840372  0.218346  0.118370
    H   H112  0.222503  0.831131  0.089800  0.131455
    H   H113  0.923874  0.377408  0.560530  0.187931
    H   H114  0.940666  0.440666  0.574093  0.131136
    H   H115  0.900786  0.490679  0.654381  0.130502
    H   H116  0.887865  0.481479  0.755968  0.110089
    H   H117  0.884398  0.321520  0.732700  -0.022124
    H   H118  0.856408  0.285463  0.903075  0.157052
    H   H119  0.909628  0.336583  0.968346  0.107000
    H   H120  0.918869  0.452474  0.839800  0.150396
    H   H121  0.596156  0.602563  0.060530  0.188154
    H   H122  0.579364  0.539305  0.074093  0.131677
    H   H123  0.619244  0.489291  0.154381  0.129340
    H   H124  0.632164  0.498492  0.255968  0.109774
    H   H125  0.635631  0.658450  0.232700  -0.022082
    H   H126  0.663621  0.694507  0.403075  0.156721
    H   H127  0.610402  0.643388  0.468346  0.105693
    H   H128  0.601161  0.527497  0.339800  0.151035
    I   I1    0.821163  0.907203  0.782003  -0.057964
    I   I2    0.698866  0.072768  0.282003  -0.058127
    I   I3    0.342797  0.551134  0.032003  -0.059575
    I   I4    0.177232  0.428837  0.532003  -0.060293
    I   I5    0.698866  0.907203  0.717997  -0.058710
    I   I6    0.821163  0.072768  0.217997  -0.057416
    I   I7    0.177232  0.551134  0.467997  -0.059772
    I   I8    0.342797  0.428837  0.967997  -0.060458
    I   I9    0.198866  0.072768  0.217997  -0.058127
    I   I10   0.321163  0.907203  0.717997  -0.057965
    I   I11   0.677232  0.428837  0.967997  -0.060293
    I   I12   0.842797  0.551134  0.467997  -0.059582
    I   I13   0.321163  0.072768  0.282003  -0.057416
    I   I14   0.198866  0.907203  0.782003  -0.058709
    I   I15   0.842797  0.428837  0.532003  -0.060466
    I   I16   0.677232  0.551134  0.032003  -0.059772
    N   N1    0.886743  0.856615  0.908015  -0.687404
    N   N2    0.633287  0.123356  0.408015  -0.689141
    N   N3    0.393385  0.616713  0.158015  -0.676976
    N   N4    0.126644  0.363257  0.658015  -0.677900
    N   N5    0.633287  0.856615  0.591985  -0.689320
    N   N6    0.886743  0.123356  0.091985  -0.689689
    N   N7    0.126644  0.616713  0.341985  -0.676667
    N   N8    0.393385  0.363257  0.841985  -0.678525
    N   N9    0.133287  0.123356  0.091985  -0.689143
    N   N10   0.386743  0.856615  0.591985  -0.687403
    N   N11   0.626644  0.363257  0.841985  -0.677903
    N   N12   0.893385  0.616713  0.341985  -0.676978
    N   N13   0.386743  0.123356  0.408015  -0.689687
    N   N14   0.133287  0.856615  0.908015  -0.689321
    N   N15   0.893385  0.363257  0.658015  -0.678527
    N   N16   0.626644  0.616713  0.158015  -0.676668
    O   O1    0.061859  0.997995  0.929003  -0.624248
    O   O2    0.061859  0.497995  0.070997  -0.640584
    O   O3    0.061859  0.555294  0.008708  -0.616129
    O   O4    0.061859  0.424676  0.991292  -0.616999
    O   O5    0.061859  0.481975  0.929003  -0.642531
    O   O6    0.958170  0.424676  0.991292  -0.616042
    O   O7    0.958170  0.481975  0.929003  -0.640491
    O   O8    0.958170  0.497995  0.070997  -0.641111
    O   O9    0.958170  0.555294  0.008708  -0.617587
    O   O10   0.061859  0.981975  0.070997  -0.626263
    O   O11   0.061859  0.924676  0.008708  -0.461948
    O   O12   0.561859  0.997995  0.570997  -0.624248
    O   O13   0.561859  0.055294  0.508708  -0.462543
    O   O14   0.561859  0.924676  0.491292  -0.461948
    O   O15   0.561859  0.981975  0.429003  -0.626262
    O   O16   0.458170  0.924676  0.491292  -0.462662
    O   O17   0.458170  0.981975  0.429003  -0.625096
    O   O18   0.458170  0.997995  0.570997  -0.624709
    O   O19   0.458170  0.055294  0.508708  -0.464724
    O   O20   0.958170  0.981975  0.070997  -0.625093
    O   O21   0.268025  0.688141  0.320997  -0.622653
    O   O22   0.325324  0.688141  0.258708  -0.399128
    O   O23   0.194706  0.688141  0.241292  -0.399043
    O   O24   0.252005  0.688141  0.179003  -0.623227
    O   O25   0.194706  0.791830  0.241292  -0.651837
    O   O26   0.252005  0.791830  0.179003  -0.616676
    O   O27   0.958170  0.924676  0.008708  -0.462657
    O   O28   0.268025  0.791830  0.320997  -0.617257
    O   O29   0.325324  0.791830  0.258708  -0.652987
    O   O30   0.252005  0.291830  0.820997  -0.620965
    O   O31   0.194706  0.291830  0.758708  -0.396827
    O   O32   0.325324  0.291830  0.741292  -0.399169
    O   O33   0.268025  0.291830  0.679003  -0.622279
    O   O34   0.325324  0.188141  0.741292  -0.652366
    O   O35   0.268025  0.188141  0.679003  -0.617636
    O   O36   0.252005  0.188141  0.820997  -0.619020
    O   O37   0.194706  0.188141  0.758708  -0.653570
    O   O38   0.752005  0.291830  0.679003  -0.620959
    O   O39   0.958170  0.055294  0.991292  -0.464720
    O   O40   0.694706  0.291830  0.741292  -0.396826
    O   O41   0.825324  0.291830  0.758708  -0.399169
    O   O42   0.768025  0.291830  0.820997  -0.622281
    O   O43   0.825324  0.188141  0.758708  -0.652365
    O   O44   0.768025  0.188141  0.820997  -0.617634
    O   O45   0.752005  0.188141  0.679003  -0.619022
    O   O46   0.694706  0.188141  0.741292  -0.653572
    O   O47   0.958170  0.997995  0.929003  -0.624706
    O   O48   0.768025  0.688141  0.179003  -0.622656
    O   O49   0.825324  0.688141  0.241292  -0.399129
    O   O50   0.694706  0.688141  0.258708  -0.399034
    O   O51   0.752005  0.688141  0.320997  -0.623212
    O   O52   0.694706  0.791830  0.258708  -0.651838
    O   O53   0.752005  0.791830  0.320997  -0.616677
    O   O54   0.768025  0.791830  0.179003  -0.617254
    O   O55   0.825324  0.791830  0.241292  -0.652985
    O   O56   0.458170  0.481975  0.570997  -0.640509
    O   O57   0.458170  0.424676  0.508708  -0.616061
    O   O58   0.061859  0.055294  0.991292  -0.462542
    O   O59   0.458170  0.555294  0.491292  -0.617614
    O   O60   0.458170  0.497995  0.429003  -0.641128
    O   O61   0.561859  0.555294  0.491292  -0.616196
    O   O62   0.561859  0.497995  0.429003  -0.640652
    O   O63   0.561859  0.481975  0.570997  -0.642592
    O   O64   0.561859  0.424676  0.508708  -0.617016
