# Generated by REPEAT Assigner based on pymatgen
data_DB13-lvt-Syn038099
_audit_creation_date              2022-05-24
_audit_creation_method            REPEAT_Assigner
_cell_length_a                    30.984800
_cell_length_b                    30.984800
_cell_length_c                    28.895600
_cell_angle_alpha                 90.000000
_cell_angle_beta                  90.000000
_cell_angle_gamma                 90.000000
_cell_volume                      27741.447063
_symmetry_space_group_name_H-M    P1
_symmetry_Int_Tables_number       1
loop_
    _symmetry_equiv_pos_site_id
    _symmetry_equiv_pos_as_xyz
    1  x,y,z
loop_
    _atom_site_type_symbol
    _atom_site_label
    _atom_site_fract_x
    _atom_site_fract_y
    _atom_site_fract_z
    _atom_type_partial_charge
    Br  Br1   0.833748  0.833748  0.842929  0.016435
    Br  Br2   0.683109  0.149395  0.342929  0.017413
    Br  Br3   0.416252  0.566891  0.092929  -0.004475
    Br  Br4   0.100605  0.416252  0.592929  -0.004814
    Br  Br5   0.683109  0.833748  0.657071  0.017525
    Br  Br6   0.833748  0.149395  0.157071  0.016961
    Br  Br7   0.100605  0.566891  0.407071  -0.004424
    Br  Br8   0.416252  0.416252  0.907071  -0.005335
    Br  Br9   0.183109  0.149395  0.157071  0.017411
    Br  Br10  0.333748  0.833748  0.657071  0.016433
    Br  Br11  0.600605  0.416252  0.907071  -0.004816
    Br  Br12  0.916252  0.566891  0.407071  -0.004476
    Br  Br13  0.333748  0.149395  0.342929  0.016964
    Br  Br14  0.183109  0.833748  0.842929  0.017527
    Br  Br15  0.916252  0.416252  0.592929  -0.005334
    Br  Br16  0.600605  0.566891  0.092929  -0.004423
    C   C1    0.065982  0.532268  0.043639  0.837253
    C   C2    0.065982  0.450875  0.956361  0.837134
    C   C3    0.950875  0.450875  0.956361  0.837285
    C   C4    0.950875  0.532268  0.043639  0.834280
    C   C5    0.065982  0.950875  0.043639  0.834068
    C   C6    0.887253  0.898426  0.066380  -0.339246
    C   C7    0.861326  0.874388  0.097883  0.409077
    C   C8    0.871397  0.883350  0.146395  0.059105
    C   C9    0.852573  0.857824  0.179875  -0.171263
    C   C10   0.818519  0.828849  0.167850  -0.171471
    C   C11   0.802787  0.828172  0.123081  0.058986
    C   C12   0.824058  0.849764  0.086791  -0.375172
    C   C13   0.901362  0.914625  0.159314  -0.141547
    C   C14   0.924907  0.936181  0.125867  -0.152243
    C   C15   0.918001  0.931327  0.077939  -0.000828
    C   C16   0.878124  0.893814  0.012428  0.592168
    C   C17   0.865656  0.853929  0.982738  -0.545345
    C   C18   0.851743  0.860366  0.936080  0.329234
    C   C19   0.847342  0.826336  0.906210  -0.371396
    C   C20   0.849938  0.785162  0.926257  0.436631
    C   C21   0.870766  0.811343  0.995567  0.777893
    C   C22   0.629604  0.084717  0.566380  -0.342026
    C   C23   0.655531  0.108755  0.597883  0.408305
    C   C24   0.645460  0.099793  0.646395  0.060831
    C   C25   0.664284  0.125319  0.679875  -0.172610
    C   C26   0.698338  0.154294  0.667850  -0.169720
    C   C27   0.714070  0.154971  0.623081  0.056535
    C   C28   0.692799  0.133378  0.586791  -0.372780
    C   C29   0.615495  0.068518  0.659314  -0.140500
    C   C30   0.591950  0.046962  0.625867  -0.156808
    C   C31   0.598856  0.051816  0.577939  0.003320
    C   C32   0.638733  0.089329  0.512428  0.591834
    C   C33   0.651201  0.129214  0.482738  -0.546348
    C   C34   0.665114  0.122777  0.436080  0.332725
    C   C35   0.669515  0.156806  0.406210  -0.375824
    C   C36   0.565982  0.032268  0.543639  0.838298
    C   C37   0.666919  0.197981  0.426257  0.440078
    C   C38   0.646091  0.171799  0.495567  0.780448
    C   C39   0.351574  0.620396  0.316380  -0.312737
    C   C40   0.375612  0.594469  0.347883  0.366825
    C   C41   0.366650  0.604540  0.396395  0.098221
    C   C42   0.392176  0.585716  0.429875  -0.181499
    C   C43   0.421151  0.551662  0.417850  -0.155291
    C   C44   0.421828  0.535930  0.373081  0.046666
    C   C45   0.400236  0.557201  0.336791  -0.356086
    C   C46   0.335375  0.634505  0.409314  -0.181379
    C   C47   0.313819  0.658050  0.375867  -0.089670
    C   C48   0.318673  0.651144  0.327939  -0.053617
    C   C49   0.356186  0.611267  0.262428  0.583710
    C   C50   0.396071  0.598799  0.232738  -0.430585
    C   C51   0.389634  0.584886  0.186080  0.229516
    C   C52   0.423664  0.580485  0.156210  -0.270479
    C   C53   0.464838  0.583081  0.176257  0.274446
    C   C54   0.438657  0.603909  0.245567  0.560812
    C   C55   0.565982  0.950875  0.456361  0.834092
    C   C56   0.165283  0.362747  0.816380  -0.310450
    C   C57   0.141245  0.388674  0.847883  0.366594
    C   C58   0.150207  0.378603  0.896395  0.097185
    C   C59   0.124681  0.397427  0.929875  -0.182497
    C   C60   0.095706  0.431481  0.917850  -0.156216
    C   C61   0.095029  0.447213  0.873081  0.047940
    C   C62   0.116622  0.425942  0.836791  -0.356200
    C   C63   0.950875  0.950875  0.043639  0.836740
    C   C64   0.181482  0.348638  0.909314  -0.180359
    C   C65   0.203038  0.325093  0.875867  -0.090048
    C   C66   0.198184  0.331999  0.827939  -0.055429
    C   C67   0.160671  0.371876  0.762428  0.584302
    C   C68   0.120786  0.384344  0.732738  -0.432966
    C   C69   0.127223  0.398257  0.686080  0.230065
    C   C70   0.093194  0.402658  0.656210  -0.270168
    C   C71   0.052019  0.400062  0.676257  0.275207
    C   C72   0.078201  0.379234  0.745567  0.563716
    C   C73   0.450875  0.950875  0.456361  0.836723
    C   C74   0.629604  0.898426  0.433620  -0.345374
    C   C75   0.655531  0.874388  0.402117  0.412373
    C   C76   0.645460  0.883350  0.353605  0.056279
    C   C77   0.664284  0.857824  0.320125  -0.170036
    C   C78   0.698338  0.828849  0.332150  -0.168353
    C   C79   0.714070  0.828172  0.376919  0.055612
    C   C80   0.692799  0.849764  0.413209  -0.373917
    C   C81   0.615495  0.914625  0.340686  -0.140566
    C   C82   0.591950  0.936181  0.374133  -0.152885
    C   C83   0.598856  0.931327  0.422061  0.005066
    C   C84   0.638733  0.893814  0.487572  0.593431
    C   C85   0.651201  0.853929  0.517262  -0.545508
    C   C86   0.665114  0.860366  0.563920  0.331417
    C   C87   0.669515  0.826336  0.593790  -0.375336
    C   C88   0.666919  0.785162  0.573743  0.438697
    C   C89   0.646091  0.811343  0.504433  0.779113
    C   C90   0.887253  0.084717  0.933620  -0.341984
    C   C91   0.861326  0.108755  0.902117  0.411071
    C   C92   0.871397  0.099793  0.853605  0.055583
    C   C93   0.450875  0.032268  0.543639  0.833571
    C   C94   0.852573  0.125319  0.820125  -0.171206
    C   C95   0.818519  0.154294  0.832150  -0.168806
    C   C96   0.802787  0.154971  0.876919  0.056546
    C   C97   0.824058  0.133378  0.913209  -0.373568
    C   C98   0.901362  0.068518  0.840686  -0.139251
    C   C99   0.924907  0.046962  0.874133  -0.153438
    C   C100  0.918001  0.051816  0.922061  0.002892
    C   C101  0.878124  0.089329  0.987572  0.592892
    C   C102  0.865656  0.129214  0.017262  -0.544427
    C   C103  0.851743  0.122777  0.063920  0.329483
    C   C104  0.847342  0.156806  0.093790  -0.372674
    C   C105  0.849938  0.197981  0.073743  0.437380
    C   C106  0.870766  0.171799  0.004433  0.777317
    C   C107  0.165283  0.620396  0.183620  -0.310579
    C   C108  0.141245  0.594469  0.152117  0.363661
    C   C109  0.150207  0.604540  0.103605  0.102395
    C   C110  0.124681  0.585716  0.070125  -0.184511
    C   C111  0.095706  0.551662  0.082150  -0.155716
    C   C112  0.095029  0.535930  0.126919  0.047164
    C   C113  0.116622  0.557201  0.163209  -0.355252
    C   C114  0.181482  0.634505  0.090686  -0.181155
    C   C115  0.203038  0.658050  0.124133  -0.093479
    C   C116  0.198184  0.651144  0.172061  -0.054531
    C   C117  0.160671  0.611267  0.237572  0.583299
    C   C118  0.120786  0.598799  0.267262  -0.434853
    C   C119  0.127223  0.584886  0.313920  0.233252
    C   C120  0.093194  0.580485  0.343790  -0.273554
    C   C121  0.052019  0.583081  0.323743  0.278501
    C   C122  0.078201  0.603909  0.254433  0.566912
    C   C123  0.299125  0.684018  0.293639  0.883908
    C   C124  0.351574  0.362747  0.683620  -0.307430
    C   C125  0.375612  0.388674  0.652117  0.363826
    C   C126  0.366650  0.378603  0.603605  0.100737
    C   C127  0.392176  0.397427  0.570125  -0.183016
    C   C128  0.421151  0.431481  0.582150  -0.157250
    C   C129  0.421828  0.447213  0.626919  0.049019
    C   C130  0.400236  0.425942  0.663209  -0.356980
    C   C131  0.335375  0.348638  0.590686  -0.182184
    C   C132  0.313819  0.325093  0.624133  -0.089028
    C   C133  0.318673  0.331999  0.672061  -0.058805
    C   C134  0.356186  0.371876  0.737572  0.583738
    C   C135  0.396071  0.384344  0.767262  -0.433530
    C   C136  0.389634  0.398257  0.813920  0.229532
    C   C137  0.423664  0.402658  0.843790  -0.268606
    C   C138  0.464838  0.400062  0.823743  0.274102
    C   C139  0.438657  0.379234  0.754433  0.563088
    C   C140  0.129604  0.084717  0.933620  -0.342037
    C   C141  0.155531  0.108755  0.902117  0.408324
    C   C142  0.217732  0.684018  0.206361  0.887442
    C   C143  0.145460  0.099793  0.853605  0.060815
    C   C144  0.164284  0.125319  0.820125  -0.172604
    C   C145  0.198338  0.154294  0.832150  -0.169718
    C   C146  0.214070  0.154971  0.876919  0.056547
    C   C147  0.192799  0.133378  0.913209  -0.372802
    C   C148  0.115495  0.068518  0.840686  -0.140485
    C   C149  0.091950  0.046962  0.874133  -0.156812
    C   C150  0.098856  0.051816  0.922061  0.003312
    C   C151  0.138733  0.089329  0.987572  0.591817
    C   C152  0.151201  0.129214  0.017262  -0.546324
    C   C153  0.165114  0.122777  0.063920  0.332716
    C   C154  0.169515  0.156806  0.093790  -0.375817
    C   C155  0.166919  0.197981  0.073743  0.440073
    C   C156  0.146091  0.171799  0.004433  0.780426
    C   C157  0.387253  0.898426  0.433620  -0.339244
    C   C158  0.361326  0.874388  0.402117  0.409076
    C   C159  0.371397  0.883350  0.353605  0.059108
    C   C160  0.352573  0.857824  0.320125  -0.171250
    C   C161  0.318519  0.828849  0.332150  -0.171515
    C   C162  0.217732  0.799125  0.206361  0.832073
    C   C163  0.302787  0.828172  0.376919  0.059019
    C   C164  0.324058  0.849764  0.413209  -0.375181
    C   C165  0.401362  0.914625  0.340686  -0.141550
    C   C166  0.424907  0.936181  0.374133  -0.152244
    C   C167  0.418001  0.931327  0.422061  -0.000826
    C   C168  0.378124  0.893814  0.487572  0.592175
    C   C169  0.365656  0.853929  0.517262  -0.545356
    C   C170  0.351743  0.860366  0.563920  0.329231
    C   C171  0.347342  0.826336  0.593790  -0.371380
    C   C172  0.349938  0.785162  0.573743  0.436613
    C   C173  0.370766  0.811343  0.504433  0.777909
    C   C174  0.665283  0.362747  0.683620  -0.310438
    C   C175  0.641245  0.388674  0.652117  0.366598
    C   C176  0.650207  0.378603  0.603605  0.097181
    C   C177  0.624681  0.397427  0.570125  -0.182485
    C   C178  0.595706  0.431481  0.582150  -0.156267
    C   C179  0.595029  0.447213  0.626919  0.047968
    C   C180  0.616622  0.425942  0.663209  -0.356210
    C   C181  0.681482  0.348638  0.590686  -0.180351
    C   C182  0.299125  0.799125  0.293639  0.836061
    C   C183  0.703038  0.325093  0.624133  -0.090056
    C   C184  0.698184  0.331999  0.672061  -0.055434
    C   C185  0.660671  0.371876  0.737572  0.584292
    C   C186  0.620786  0.384344  0.767262  -0.432957
    C   C187  0.627223  0.398257  0.813920  0.230057
    C   C188  0.593194  0.402658  0.843790  -0.270155
    C   C189  0.552019  0.400062  0.823743  0.275193
    C   C190  0.578201  0.379234  0.754433  0.563714
    C   C191  0.851574  0.620396  0.183620  -0.312702
    C   C192  0.875612  0.594469  0.152117  0.366791
    C   C193  0.866650  0.604540  0.103605  0.098252
    C   C194  0.892176  0.585716  0.070125  -0.181519
    C   C195  0.921151  0.551662  0.082150  -0.155230
    C   C196  0.921828  0.535930  0.126919  0.046634
    C   C197  0.900236  0.557201  0.163209  -0.356074
    C   C198  0.835375  0.634505  0.090686  -0.181406
    C   C199  0.813819  0.658050  0.124133  -0.089622
    C   C200  0.818673  0.651144  0.172061  -0.053690
    C   C201  0.856186  0.611267  0.237572  0.583660
    C   C202  0.896071  0.598799  0.267262  -0.430575
    C   C203  0.889634  0.584886  0.313920  0.229499
    C   C204  0.923664  0.580485  0.343790  -0.270457
    C   C205  0.964838  0.583081  0.323743  0.274429
    C   C206  0.938657  0.603909  0.254433  0.560813
    C   C207  0.387253  0.084717  0.566380  -0.341961
    C   C208  0.361326  0.108755  0.597883  0.411004
    C   C209  0.371397  0.099793  0.646395  0.055602
    C   C210  0.352573  0.125319  0.679875  -0.171195
    C   C211  0.217732  0.299125  0.793639  0.883277
    C   C212  0.318519  0.154294  0.667850  -0.168791
    C   C213  0.302787  0.154971  0.623081  0.056410
    C   C214  0.324058  0.133378  0.586791  -0.373351
    C   C215  0.401362  0.068518  0.659314  -0.139384
    C   C216  0.424907  0.046962  0.625867  -0.153212
    C   C217  0.418001  0.051816  0.577939  0.002776
    C   C218  0.378124  0.089329  0.512428  0.592864
    C   C219  0.365656  0.129214  0.482738  -0.544386
    C   C220  0.351743  0.122777  0.436080  0.329472
    C   C221  0.347342  0.156806  0.406210  -0.372684
    C   C222  0.349938  0.197981  0.426257  0.437390
    C   C223  0.370766  0.171799  0.495567  0.777308
    C   C224  0.129604  0.898426  0.066380  -0.345350
    C   C225  0.155531  0.874388  0.097883  0.412347
    C   C226  0.145460  0.883350  0.146395  0.056289
    C   C227  0.164284  0.857824  0.179875  -0.170050
    C   C228  0.198338  0.828849  0.167850  -0.168293
    C   C229  0.214070  0.828172  0.123081  0.055550
    C   C230  0.192799  0.849764  0.086791  -0.373877
    C   C231  0.299125  0.299125  0.706361  0.885613
    C   C232  0.115495  0.914625  0.159314  -0.140575
    C   C233  0.091950  0.936181  0.125867  -0.152869
    C   C234  0.098856  0.931327  0.077939  0.005052
    C   C235  0.138733  0.893814  0.012428  0.593394
    C   C236  0.151201  0.853929  0.982738  -0.545488
    C   C237  0.165114  0.860366  0.936080  0.331424
    C   C238  0.169515  0.826336  0.906210  -0.375351
    C   C239  0.166919  0.785162  0.926257  0.438708
    C   C240  0.146091  0.811343  0.995567  0.779097
    C   C241  0.851574  0.362747  0.816380  -0.307445
    C   C242  0.875612  0.388674  0.847883  0.363825
    C   C243  0.866650  0.378603  0.896395  0.100753
    C   C244  0.892176  0.397427  0.929875  -0.183005
    C   C245  0.921151  0.431481  0.917850  -0.157295
    C   C246  0.921828  0.447213  0.873081  0.049044
    C   C247  0.900236  0.425942  0.836791  -0.356983
    C   C248  0.835375  0.348638  0.909314  -0.182204
    C   C249  0.813819  0.325093  0.875867  -0.089012
    C   C250  0.818673  0.331999  0.827939  -0.058803
    C   C251  0.950875  0.032268  0.956361  0.833543
    C   C252  0.299125  0.184018  0.706361  0.834622
    C   C253  0.856186  0.371876  0.762428  0.583756
    C   C254  0.896071  0.384344  0.732738  -0.433540
    C   C255  0.889634  0.398257  0.686080  0.229537
    C   C256  0.923664  0.402658  0.656210  -0.268618
    C   C257  0.964838  0.400062  0.676257  0.274119
    C   C258  0.938657  0.379234  0.745567  0.563087
    C   C259  0.665283  0.620396  0.316380  -0.310346
    C   C260  0.641245  0.594469  0.347883  0.363567
    C   C261  0.650207  0.604540  0.396395  0.102415
    C   C262  0.624681  0.585716  0.429875  -0.184427
    C   C263  0.595706  0.551662  0.417850  -0.155793
    C   C264  0.595029  0.535930  0.373081  0.047240
    C   C265  0.616622  0.557201  0.336791  -0.355266
    C   C266  0.681482  0.634505  0.409314  -0.181201
    C   C267  0.703038  0.658050  0.375867  -0.093460
    C   C268  0.698184  0.651144  0.327939  -0.054658
    C   C269  0.217732  0.184018  0.793639  0.835573
    C   C270  0.660671  0.611267  0.262428  0.583181
    C   C271  0.620786  0.598799  0.232738  -0.434792
    C   C272  0.627223  0.584886  0.186080  0.233249
    C   C273  0.593194  0.580485  0.156210  -0.273559
    C   C274  0.552019  0.583081  0.176257  0.278486
    C   C275  0.578201  0.603909  0.245567  0.566879
    C   C276  0.717732  0.299125  0.706361  0.883291
    C   C277  0.799125  0.299125  0.793639  0.885600
    C   C278  0.799125  0.184018  0.793639  0.834613
    C   C279  0.717732  0.184018  0.706361  0.835589
    C   C280  0.799125  0.684018  0.206361  0.883957
    C   C281  0.717732  0.684018  0.293639  0.887329
    C   C282  0.717732  0.799125  0.293639  0.832138
    C   C283  0.065982  0.032268  0.956361  0.838358
    C   C284  0.799125  0.799125  0.206361  0.836025
    C   C285  0.450875  0.450875  0.543639  0.837225
    C   C286  0.450875  0.532268  0.456361  0.834347
    C   C287  0.565982  0.532268  0.456361  0.837197
    C   C288  0.565982  0.450875  0.543639  0.837204
    Cu  Cu1   0.008429  0.961273  0.967511  0.980025
    Cu  Cu2   0.008429  0.021870  0.032489  0.981064
    Cu  Cu3   0.508429  0.021870  0.467511  0.981048
    Cu  Cu4   0.508429  0.961273  0.532489  0.980029
    Cu  Cu5   0.288727  0.741571  0.217511  0.988621
    Cu  Cu6   0.228130  0.741571  0.282489  0.989804
    Cu  Cu7   0.228130  0.241571  0.717511  0.988908
    Cu  Cu8   0.288727  0.241571  0.782489  0.988359
    Cu  Cu9   0.728130  0.241571  0.782489  0.988932
    Cu  Cu10  0.788727  0.241571  0.717511  0.988340
    Cu  Cu11  0.788727  0.741571  0.282489  0.988649
    Cu  Cu12  0.728130  0.741571  0.217511  0.989776
    Cu  Cu13  0.508429  0.461273  0.467511  0.984820
    Cu  Cu14  0.508429  0.521870  0.532489  0.985335
    Cu  Cu15  0.008429  0.521870  0.967511  0.985351
    Cu  Cu16  0.008429  0.461273  0.032489  0.984794
    F   F1    0.890896  0.801973  0.036148  -0.263087
    F   F2    0.625961  0.181170  0.536148  -0.263202
    F   F3    0.448027  0.624039  0.286148  -0.216529
    F   F4    0.068830  0.359104  0.786148  -0.217097
    F   F5    0.625961  0.801973  0.463852  -0.263085
    F   F6    0.890896  0.181170  0.963852  -0.262859
    F   F7    0.068830  0.624039  0.213852  -0.217500
    F   F8    0.448027  0.359104  0.713852  -0.217066
    F   F9    0.125961  0.181170  0.963852  -0.263193
    F   F10   0.390896  0.801973  0.463852  -0.263094
    F   F11   0.568830  0.359104  0.713852  -0.217099
    F   F12   0.948027  0.624039  0.213852  -0.216525
    F   F13   0.390896  0.181170  0.536148  -0.262860
    F   F14   0.125961  0.801973  0.036148  -0.263081
    F   F15   0.948027  0.359104  0.786148  -0.217063
    F   F16   0.568830  0.624039  0.286148  -0.217500
    H   H1    0.859477  0.857553  0.218046  0.118633
    H   H2    0.772327  0.811997  0.116927  0.092054
    H   H3    0.812699  0.848705  0.051121  0.164114
    H   H4    0.908816  0.920742  0.193763  0.141456
    H   H5    0.950221  0.958983  0.136144  0.113363
    H   H6    0.843690  0.891932  0.924177  0.049158
    H   H7    0.841446  0.758957  0.904273  0.023005
    H   H8    0.657380  0.125590  0.718046  0.118730
    H   H9    0.744530  0.171146  0.616927  0.092892
    H   H10   0.704158  0.134438  0.551121  0.163088
    H   H11   0.608041  0.062401  0.693763  0.141299
    H   H12   0.566636  0.024160  0.636144  0.114945
    H   H13   0.673168  0.091210  0.424177  0.048067
    H   H14   0.675411  0.224186  0.404273  0.022310
    H   H15   0.392447  0.592620  0.468046  0.114068
    H   H16   0.438003  0.505470  0.366927  0.089874
    H   H17   0.401295  0.545842  0.301121  0.156984
    H   H18   0.329258  0.641959  0.443763  0.150085
    H   H19   0.291017  0.683364  0.386144  0.096709
    H   H20   0.358068  0.576832  0.174177  0.066404
    H   H21   0.491043  0.574589  0.154273  0.031364
    H   H22   0.124410  0.390523  0.968046  0.114560
    H   H23   0.078854  0.477673  0.866927  0.089112
    H   H24   0.115562  0.437301  0.801121  0.157215
    H   H25   0.187599  0.341184  0.943763  0.150379
    H   H26   0.225840  0.299779  0.886144  0.096405
    H   H27   0.158790  0.406310  0.674177  0.066256
    H   H28   0.025814  0.408554  0.654273  0.032429
    H   H29   0.657380  0.857553  0.281954  0.118182
    H   H30   0.744530  0.811997  0.383073  0.093061
    H   H31   0.704158  0.848705  0.448879  0.163406
    H   H32   0.608041  0.920742  0.306237  0.141350
    H   H33   0.566636  0.958983  0.363856  0.112776
    H   H34   0.673168  0.891932  0.575823  0.048871
    H   H35   0.675411  0.758957  0.595727  0.022479
    H   H36   0.859477  0.125590  0.781954  0.118694
    H   H37   0.772327  0.171146  0.883073  0.092477
    H   H38   0.812699  0.134438  0.948879  0.163566
    H   H39   0.908816  0.062401  0.806237  0.141387
    H   H40   0.950221  0.024160  0.863856  0.112568
    H   H41   0.843690  0.091210  0.075823  0.049058
    H   H42   0.841446  0.224186  0.095727  0.022580
    H   H43   0.124410  0.592620  0.031954  0.114722
    H   H44   0.078854  0.505470  0.133073  0.089597
    H   H45   0.115562  0.545842  0.198879  0.156900
    H   H46   0.187599  0.641959  0.056237  0.150086
    H   H47   0.225840  0.683364  0.113856  0.098444
    H   H48   0.158790  0.576832  0.325823  0.065364
    H   H49   0.025814  0.574589  0.345727  0.033360
    H   H50   0.392447  0.390523  0.531954  0.114619
    H   H51   0.438003  0.477673  0.633073  0.088951
    H   H52   0.401295  0.437301  0.698879  0.157605
    H   H53   0.329258  0.341184  0.556237  0.150259
    H   H54   0.291017  0.299779  0.613856  0.097005
    H   H55   0.358068  0.406310  0.825823  0.066389
    H   H56   0.491043  0.408554  0.845727  0.032982
    H   H57   0.157380  0.125590  0.781954  0.118729
    H   H58   0.244530  0.171146  0.883073  0.092887
    H   H59   0.204158  0.134438  0.948879  0.163099
    H   H60   0.108041  0.062401  0.806237  0.141292
    H   H61   0.066636  0.024160  0.863856  0.114951
    H   H62   0.173168  0.091210  0.075823  0.048070
    H   H63   0.175411  0.224186  0.095727  0.022311
    H   H64   0.359477  0.857553  0.281954  0.118626
    H   H65   0.272327  0.811997  0.383073  0.092043
    H   H66   0.312699  0.848705  0.448879  0.164112
    H   H67   0.408816  0.920742  0.306237  0.141459
    H   H68   0.450221  0.958983  0.363856  0.113361
    H   H69   0.343690  0.891932  0.575823  0.049152
    H   H70   0.341446  0.758957  0.595727  0.023010
    H   H71   0.624410  0.390523  0.531954  0.114560
    H   H72   0.578854  0.477673  0.633073  0.089104
    H   H73   0.615562  0.437301  0.698879  0.157216
    H   H74   0.687599  0.341184  0.556237  0.150375
    H   H75   0.725840  0.299779  0.613856  0.096408
    H   H76   0.658790  0.406310  0.825823  0.066255
    H   H77   0.525814  0.408554  0.845727  0.032432
    H   H78   0.892447  0.592620  0.031954  0.114072
    H   H79   0.938003  0.505470  0.133073  0.089880
    H   H80   0.901295  0.545842  0.198879  0.156985
    H   H81   0.829258  0.641959  0.056237  0.150088
    H   H82   0.791017  0.683364  0.113856  0.096700
    H   H83   0.858068  0.576832  0.325823  0.066398
    H   H84   0.991043  0.574589  0.345727  0.031367
    H   H85   0.359477  0.125590  0.718046  0.118699
    H   H86   0.272327  0.171146  0.616927  0.092500
    H   H87   0.312699  0.134438  0.551121  0.163489
    H   H88   0.408816  0.062401  0.693763  0.141412
    H   H89   0.450221  0.024160  0.636144  0.112505
    H   H90   0.343690  0.091210  0.424177  0.049058
    H   H91   0.341446  0.224186  0.404273  0.022578
    H   H92   0.157380  0.857553  0.218046  0.118189
    H   H93   0.244530  0.811997  0.116927  0.093082
    H   H94   0.204158  0.848705  0.051121  0.163401
    H   H95   0.108041  0.920742  0.193763  0.141349
    H   H96   0.066636  0.958983  0.136144  0.112772
    H   H97   0.173168  0.891932  0.924177  0.048871
    H   H98   0.175411  0.758957  0.904273  0.022477
    H   H99   0.892447  0.390523  0.968046  0.114608
    H   H100  0.938003  0.477673  0.866927  0.088948
    H   H101  0.901295  0.437301  0.801121  0.157603
    H   H102  0.829258  0.341184  0.943763  0.150267
    H   H103  0.791017  0.299779  0.886144  0.096999
    H   H104  0.858068  0.406310  0.674177  0.066390
    H   H105  0.991043  0.408554  0.654273  0.032976
    H   H106  0.624410  0.592620  0.468046  0.114709
    H   H107  0.578854  0.505470  0.366927  0.089595
    H   H108  0.615562  0.545842  0.301121  0.156895
    H   H109  0.687599  0.641959  0.443763  0.150089
    H   H110  0.725840  0.683364  0.386144  0.098482
    H   H111  0.658790  0.576832  0.174177  0.065368
    H   H112  0.525814  0.574589  0.154273  0.033365
    N   N1    0.859557  0.776563  0.969942  -0.592530
    N   N2    0.657300  0.206580  0.469942  -0.595005
    N   N3    0.473437  0.592700  0.219942  -0.348448
    N   N4    0.043420  0.390443  0.719942  -0.351866
    N   N5    0.657300  0.776563  0.530058  -0.593418
    N   N6    0.859557  0.206580  0.030058  -0.592654
    N   N7    0.043420  0.592700  0.280058  -0.355436
    N   N8    0.473437  0.390443  0.780058  -0.350378
    N   N9    0.157300  0.206580  0.030058  -0.595000
    N   N10   0.359557  0.776563  0.530058  -0.592528
    N   N11   0.543420  0.390443  0.780058  -0.351861
    N   N12   0.973437  0.592700  0.280058  -0.348442
    N   N13   0.359557  0.206580  0.469942  -0.592659
    N   N14   0.157300  0.776563  0.969942  -0.593416
    N   N15   0.973437  0.390443  0.719942  -0.350382
    N   N16   0.543420  0.592700  0.219942  -0.355415
    O   O1    0.052061  0.998313  0.941061  -0.600085
    O   O2    0.052061  0.498313  0.058939  -0.623329
    O   O3    0.052061  0.546536  0.007229  -0.642453
    O   O4    0.052061  0.436607  0.992771  -0.642041
    O   O5    0.052061  0.484830  0.941061  -0.623152
    O   O6    0.964796  0.436607  0.992771  -0.641837
    O   O7    0.964796  0.484830  0.941061  -0.623231
    O   O8    0.964796  0.498313  0.058939  -0.622285
    O   O9    0.964796  0.546536  0.007229  -0.640962
    O   O10   0.052061  0.984830  0.058939  -0.598998
    O   O11   0.873264  0.929661  0.993277  -0.402672
    O   O12   0.052061  0.936607  0.007229  -0.655428
    O   O13   0.643593  0.053482  0.493277  -0.402162
    O   O14   0.552061  0.998313  0.558939  -0.600048
    O   O15   0.552061  0.046536  0.507229  -0.657452
    O   O16   0.320339  0.606407  0.243277  -0.413000
    O   O17   0.552061  0.936607  0.492771  -0.655464
    O   O18   0.196518  0.376736  0.743277  -0.412938
    O   O19   0.552061  0.984830  0.441061  -0.599005
    O   O20   0.464796  0.936607  0.492771  -0.655384
    O   O21   0.643593  0.929661  0.506723  -0.403124
    O   O22   0.464796  0.984830  0.441061  -0.599365
    O   O23   0.464796  0.998313  0.558939  -0.597947
    O   O24   0.873264  0.053482  0.006723  -0.402925
    O   O25   0.464796  0.046536  0.507229  -0.654794
    O   O26   0.196518  0.606407  0.256723  -0.412256
    O   O27   0.964796  0.984830  0.058939  -0.599383
    O   O28   0.265170  0.697939  0.308939  -0.609753
    O   O29   0.320339  0.376736  0.756723  -0.412756
    O   O30   0.313393  0.697939  0.257229  -0.666529
    O   O31   0.203464  0.697939  0.242771  -0.668509
    O   O32   0.143593  0.053482  0.006723  -0.402164
    O   O33   0.251687  0.697939  0.191061  -0.610572
    O   O34   0.203464  0.785204  0.242771  -0.650535
    O   O35   0.373264  0.929661  0.506723  -0.402667
    O   O36   0.251687  0.785204  0.191061  -0.621943
    O   O37   0.696518  0.376736  0.756723  -0.412938
    O   O38   0.964796  0.936607  0.007229  -0.655394
    O   O39   0.265170  0.785204  0.308939  -0.623409
    O   O40   0.313393  0.785204  0.257229  -0.651467
    O   O41   0.820339  0.606407  0.256723  -0.412925
    O   O42   0.251687  0.285204  0.808939  -0.608574
    O   O43   0.373264  0.053482  0.493277  -0.402914
    O   O44   0.203464  0.285204  0.757229  -0.665954
    O   O45   0.143593  0.929661  0.993277  -0.403114
    O   O46   0.313393  0.285204  0.742771  -0.666426
    O   O47   0.265170  0.285204  0.691061  -0.609535
    O   O48   0.820339  0.376736  0.743277  -0.412757
    O   O49   0.313393  0.197939  0.742771  -0.651559
    O   O50   0.265170  0.197939  0.691061  -0.622764
    O   O51   0.696518  0.606407  0.243277  -0.412250
    O   O52   0.251687  0.197939  0.808939  -0.622950
    O   O53   0.203464  0.197939  0.757229  -0.652044
    O   O54   0.751687  0.285204  0.691061  -0.608570
    O   O55   0.964796  0.046536  0.992771  -0.654805
    O   O56   0.703464  0.285204  0.742771  -0.665969
    O   O57   0.813393  0.285204  0.757229  -0.666417
    O   O58   0.765170  0.285204  0.808939  -0.609536
    O   O59   0.813393  0.197939  0.757229  -0.651539
    O   O60   0.765170  0.197939  0.808939  -0.622785
    O   O61   0.751687  0.197939  0.691061  -0.622952
    O   O62   0.703464  0.197939  0.742771  -0.652054
    O   O63   0.964796  0.998313  0.941061  -0.597939
    O   O64   0.765170  0.697939  0.191061  -0.609758
    O   O65   0.813393  0.697939  0.242771  -0.666538
    O   O66   0.703464  0.697939  0.257229  -0.668415
    O   O67   0.751687  0.697939  0.308939  -0.610587
    O   O68   0.703464  0.785204  0.257229  -0.650549
    O   O69   0.751687  0.785204  0.308939  -0.621946
    O   O70   0.765170  0.785204  0.191061  -0.623398
    O   O71   0.813393  0.785204  0.242771  -0.651478
    O   O72   0.464796  0.484830  0.558939  -0.623201
    O   O73   0.464796  0.436607  0.507229  -0.641839
    O   O74   0.052061  0.046536  0.992771  -0.657465
    O   O75   0.464796  0.546536  0.492771  -0.640977
    O   O76   0.464796  0.498313  0.441061  -0.622282
    O   O77   0.552061  0.546536  0.492771  -0.642415
    O   O78   0.552061  0.498313  0.441061  -0.623362
    O   O79   0.552061  0.484830  0.558939  -0.623170
    O   O80   0.552061  0.436607  0.507229  -0.642060
