# Generated by REPEAT Assigner based on pymatgen
data_DB13-acs-Syn026776
_audit_creation_date              2022-05-24
_audit_creation_method            REPEAT_Assigner
_cell_length_a                    17.433700
_cell_length_b                    17.433700
_cell_length_c                    14.234700
_cell_angle_alpha                 90.000000
_cell_angle_beta                  90.000000
_cell_angle_gamma                 120.000000
_cell_volume                      3746.779084
_symmetry_space_group_name_H-M    P1
_symmetry_Int_Tables_number       1
loop_
    _symmetry_equiv_pos_site_id
    _symmetry_equiv_pos_as_xyz
    1  x,y,z
loop_
    _atom_site_type_symbol
    _atom_site_label
    _atom_site_fract_x
    _atom_site_fract_y
    _atom_site_fract_z
    _atom_type_partial_charge
    Pd  Pd1  0.454688  0.725859  0.249190  0.382229
    Pd  Pd2  0.271161  0.725859  0.249190  0.401917
    Pd  Pd3  0.273001  0.546012  0.245286  0.363940
    O   O1   0.186041  0.529287  0.144471  -0.271773
    O   O2   0.183107  0.655521  0.149431  -0.141377
    C   C1   0.157298  0.578646  0.120331  0.187436
    O   O3   0.343236  0.529287  0.144471  -0.121007
    O   O4   0.472403  0.655521  0.149431  -0.213532
    C   C2   0.421338  0.578646  0.120331  0.118275
    O   O5   0.470483  0.655675  0.350522  -0.191582
    O   O6   0.341754  0.530638  0.347599  -0.279410
    C   C3   0.417144  0.579654  0.379557  0.274659
    O   O7   0.185182  0.655675  0.350522  -0.290843
    O   O8   0.188874  0.530638  0.347599  -0.203930
    C   C4   0.162499  0.579654  0.379557  0.293585
    O   O9   0.470119  0.812844  0.348531  -0.317315
    O   O10  0.342716  0.812844  0.348531  -0.250326
    C   C5   0.420459  0.840927  0.374950  0.347486
    O   O11  0.470552  0.813831  0.150546  -0.210516
    O   O12  0.343269  0.813831  0.150546  -0.319443
    C   C6   0.421242  0.842493  0.125275  0.284255
    Pd  Pd4  0.545312  0.274141  0.749190  0.382233
    Pd  Pd5  0.728839  0.274141  0.749190  0.401900
    Pd  Pd6  0.726999  0.453988  0.745286  0.363947
    O   O13  0.813959  0.470713  0.644471  -0.271764
    O   O14  0.816893  0.344479  0.649431  -0.141359
    C   C7   0.842702  0.421354  0.620331  0.187418
    O   O15  0.656764  0.470713  0.644471  -0.121016
    O   O16  0.527597  0.344479  0.649431  -0.213530
    C   C8   0.578662  0.421354  0.620331  0.118284
    O   O17  0.529517  0.344325  0.850522  -0.191586
    O   O18  0.658246  0.469362  0.847599  -0.279418
    C   C9   0.582856  0.420346  0.879557  0.274669
    O   O19  0.814818  0.344325  0.850522  -0.290847
    O   O20  0.811126  0.469362  0.847599  -0.203937
    C   C10  0.837501  0.420346  0.879557  0.293598
    O   O21  0.529881  0.187156  0.848531  -0.317313
    O   O22  0.657284  0.187156  0.848531  -0.250291
    C   C11  0.579541  0.159073  0.874950  0.347447
    O   O23  0.529448  0.186169  0.650546  -0.210536
    O   O24  0.656731  0.186169  0.650546  -0.319448
    C   C12  0.578758  0.157507  0.625275  0.284293
    N   N1   0.074488  0.683209  0.053423  -0.525721
    C   C13  0.034150  0.595151  0.023109  0.263358
    C   C14  0.076794  0.546505  0.055075  0.069223
    C   C15  0.041491  0.461922  0.022844  -0.208627
    C   C16  0.964496  0.421614  0.970686  -0.188208
    C   C17  0.924328  0.467867  0.940555  0.147831
    C   C18  0.956660  0.553979  0.965696  -0.283062
    C   C19  0.034852  0.733320  0.051476  0.730955
    O   O25  0.956031  0.705394  0.031393  -0.560022
    C   C20  0.091923  0.832337  0.071457  -0.303963
    C   C21  0.141318  0.853896  0.159302  0.065278
    C   C22  0.233579  0.881793  0.166782  0.032369
    C   C23  0.277046  0.901818  0.255360  -0.274626
    C   C24  0.229130  0.889467  0.337411  0.044038
    C   C25  0.137831  0.859513  0.328543  -0.181731
    C   C26  0.096554  0.841978  0.242626  -0.137990
    H   H1   0.134520  0.708445  0.086783  0.224336
    H   H2   0.070535  0.421103  0.031707  0.190586
    H   H3   0.945007  0.361364  0.936491  0.107361
    H   H4   0.919630  0.588175  0.946222  0.158931
    H   H5   0.128593  0.859944  0.010834  0.094357
    H   H6   0.047483  0.862907  0.063442  0.108469
    H   H7   0.276734  0.893882  0.106238  0.010749
    H   H8   0.346328  0.925943  0.257431  0.177595
    H   H9   0.261839  0.906421  0.403697  0.063988
    H   H10  0.100702  0.847602  0.396951  0.130638
    H   H11  0.026964  0.812909  0.237674  0.096831
    N   N2   0.316791  0.391280  0.053423  -0.509098
    C   C27  0.404849  0.438999  0.023109  0.250415
    C   C28  0.453495  0.530288  0.055075  0.117983
    C   C29  0.538078  0.579569  0.022844  -0.254842
    C   C30  0.578386  0.542881  0.970686  -0.165265
    C   C31  0.532133  0.456461  0.940555  0.151495
    C   C32  0.446021  0.402680  0.965696  -0.293417
    C   C33  0.266680  0.301532  0.051476  0.732093
    O   O26  0.294606  0.250637  0.031393  -0.556464
    C   C34  0.167663  0.259587  0.071457  -0.332403
    C   C35  0.146104  0.287422  0.159302  0.092040
    C   C36  0.118207  0.351786  0.166782  0.028349
    C   C37  0.098182  0.375228  0.255360  -0.230042
    C   C38  0.110533  0.339663  0.337411  -0.034094
    C   C39  0.140487  0.278318  0.328543  -0.150676
    C   C40  0.158022  0.254576  0.242626  -0.154513
    H   H12  0.291555  0.426075  0.086783  0.215322
    H   H13  0.578897  0.649432  0.031707  0.204416
    H   H14  0.638636  0.583644  0.936491  0.103025
    H   H15  0.411825  0.331456  0.946222  0.161800
    H   H16  0.140056  0.268649  0.010834  0.099686
    H   H17  0.137093  0.184576  0.063442  0.114368
    H   H18  0.106118  0.382852  0.106238  -0.004231
    H   H19  0.074057  0.420385  0.257431  0.163961
    H   H20  0.093579  0.355418  0.403697  0.104757
    H   H21  0.152398  0.253100  0.396951  0.125620
    H   H22  0.187091  0.214055  0.237674  0.099874
    N   N3   0.608720  0.925512  0.053423  -0.540738
    C   C41  0.561001  0.965850  0.023109  0.311316
    C   C42  0.469712  0.923206  0.055075  0.013032
    C   C43  0.420431  0.958509  0.022844  -0.183606
    C   C44  0.457119  0.035504  0.970686  -0.199487
    C   C45  0.543539  0.075672  0.940555  0.150434
    C   C46  0.597320  0.043340  0.965696  -0.332494
    C   C47  0.698468  0.965148  0.051476  0.740704
    O   O27  0.749363  0.043969  0.031393  -0.560345
    C   C48  0.740413  0.908077  0.071457  -0.338763
    C   C49  0.712578  0.858682  0.159302  0.100932
    C   C50  0.648214  0.766421  0.166782  0.027906
    C   C51  0.624772  0.722954  0.255360  -0.242293
    C   C52  0.660337  0.770870  0.337411  0.000612
    C   C53  0.721682  0.862169  0.328543  -0.164239
    C   C54  0.745424  0.903446  0.242626  -0.153498
    H   H23  0.573925  0.865480  0.086783  0.236109
    H   H24  0.350568  0.929465  0.031707  0.176331
    H   H25  0.416356  0.054993  0.936491  0.114736
    H   H26  0.668544  0.080370  0.946222  0.193712
    H   H27  0.731351  0.871407  0.010834  0.100888
    H   H28  0.815424  0.952517  0.063442  0.113020
    H   H29  0.617148  0.723266  0.106238  -0.017420
    H   H30  0.579615  0.653672  0.257431  0.162919
    H   H31  0.644582  0.738161  0.403697  0.088710
    H   H32  0.746900  0.899298  0.396951  0.125392
    H   H33  0.785945  0.973036  0.237674  0.100227
    N   N4   0.925512  0.316791  0.553423  -0.525760
    C   C55  0.965850  0.404849  0.523109  0.263389
    C   C56  0.923206  0.453495  0.555075  0.069212
    C   C57  0.958509  0.538078  0.522844  -0.208602
    C   C58  0.035504  0.578386  0.470686  -0.188243
    C   C59  0.075672  0.532133  0.440555  0.147856
    C   C60  0.043340  0.446021  0.465696  -0.283093
    C   C61  0.965148  0.266680  0.551476  0.730991
    O   O28  0.043969  0.294606  0.531393  -0.560030
    C   C62  0.908077  0.167663  0.571457  -0.303978
    C   C63  0.858682  0.146104  0.659302  0.065276
    C   C64  0.766421  0.118207  0.666782  0.032367
    C   C65  0.722954  0.098182  0.755360  -0.274578
    C   C66  0.770870  0.110533  0.837411  0.043954
    C   C67  0.862169  0.140487  0.828543  -0.181717
    C   C68  0.903446  0.158022  0.742626  -0.137993
    H   H34  0.865480  0.291555  0.586783  0.224344
    H   H35  0.929465  0.578897  0.531707  0.190583
    H   H36  0.054993  0.638636  0.436491  0.107372
    H   H37  0.080370  0.411825  0.446222  0.158945
    H   H38  0.871407  0.140056  0.510834  0.094370
    H   H39  0.952517  0.137093  0.563442  0.108468
    H   H40  0.723266  0.106118  0.606238  0.010741
    H   H41  0.653672  0.074057  0.757431  0.177572
    H   H42  0.738161  0.093579  0.903697  0.064099
    H   H43  0.899298  0.152398  0.896951  0.130642
    H   H44  0.973036  0.187091  0.737674  0.096829
    N   N5   0.683209  0.608720  0.553423  -0.509087
    C   C69  0.595151  0.561001  0.523109  0.250417
    C   C70  0.546505  0.469712  0.555075  0.117967
    C   C71  0.461922  0.420431  0.522844  -0.254821
    C   C72  0.421614  0.457119  0.470686  -0.165271
    C   C73  0.467867  0.543539  0.440555  0.151499
    C   C74  0.553979  0.597320  0.465696  -0.293418
    C   C75  0.733320  0.698468  0.551476  0.732072
    O   O29  0.705394  0.749363  0.531393  -0.556449
    C   C76  0.832337  0.740413  0.571457  -0.332408
    C   C77  0.853896  0.712578  0.659302  0.092037
    C   C78  0.881793  0.648214  0.666782  0.028349
    C   C79  0.901818  0.624772  0.755360  -0.230054
    C   C80  0.889467  0.660337  0.837411  -0.034086
    C   C81  0.859513  0.721682  0.828543  -0.150674
    C   C82  0.841978  0.745424  0.742626  -0.154509
    H   H45  0.708445  0.573925  0.586783  0.215325
    H   H46  0.421103  0.350568  0.531707  0.204404
    H   H47  0.361364  0.416356  0.436491  0.103024
    H   H48  0.588175  0.668544  0.446222  0.161796
    H   H49  0.859944  0.731351  0.510834  0.099692
    H   H50  0.862907  0.815424  0.563442  0.114368
    H   H51  0.893882  0.617148  0.606238  -0.004233
    H   H52  0.925943  0.579615  0.757431  0.163964
    H   H53  0.906421  0.644582  0.903697  0.104762
    H   H54  0.847602  0.746900  0.896951  0.125621
    H   H55  0.812909  0.785945  0.737674  0.099876
    N   N6   0.391280  0.074488  0.553423  -0.540791
    C   C83  0.438999  0.034150  0.523109  0.311381
    C   C84  0.530288  0.076794  0.555075  0.012963
    C   C85  0.579569  0.041491  0.522844  -0.183552
    C   C86  0.542881  0.964496  0.470686  -0.199492
    C   C87  0.456461  0.924328  0.440555  0.150390
    C   C88  0.402680  0.956660  0.465696  -0.332528
    C   C89  0.301532  0.034852  0.551476  0.740743
    O   O30  0.250637  0.956031  0.531393  -0.560310
    C   C90  0.259587  0.091923  0.571457  -0.338890
    C   C91  0.287422  0.141318  0.659302  0.100980
    C   C92  0.351786  0.233579  0.666782  0.027886
    C   C93  0.375228  0.277046  0.755360  -0.242284
    C   C94  0.339663  0.229130  0.837411  0.000600
    C   C95  0.278318  0.137831  0.828543  -0.164237
    C   C96  0.254576  0.096554  0.742626  -0.153496
    H   H56  0.426075  0.134520  0.586783  0.236127
    H   H57  0.649432  0.070535  0.531707  0.176315
    H   H58  0.583644  0.945007  0.436491  0.114741
    H   H59  0.331456  0.919630  0.446222  0.193792
    H   H60  0.268649  0.128593  0.510834  0.100934
    H   H61  0.184576  0.047483  0.563442  0.113037
    H   H62  0.382852  0.276734  0.606238  -0.017412
    H   H63  0.420385  0.346328  0.757431  0.162913
    H   H64  0.355418  0.261839  0.903697  0.088717
    H   H65  0.253100  0.100702  0.896951  0.125396
    H   H66  0.214055  0.026964  0.737674  0.100220
