# Generated by REPEAT Assigner based on pymatgen
data_DB13-cds-Syn014598
_audit_creation_date              2022-05-24
_audit_creation_method            REPEAT_Assigner
_cell_length_a                    10.235700
_cell_length_b                    10.235700
_cell_length_c                    20.471300
_cell_angle_alpha                 90.000000
_cell_angle_beta                  90.000000
_cell_angle_gamma                 90.000000
_cell_volume                      2144.768981
_symmetry_space_group_name_H-M    P1
_symmetry_Int_Tables_number       1
loop_
    _symmetry_equiv_pos_site_id
    _symmetry_equiv_pos_as_xyz
    1  x,y,z
loop_
    _atom_site_type_symbol
    _atom_site_label
    _atom_site_fract_x
    _atom_site_fract_y
    _atom_site_fract_z
    _atom_type_partial_charge
    Cu  Cu1  0.870293  0.000000  0.000000  1.003776
    Cu  Cu2  0.129707  0.000000  0.000000  1.020978
    C   C1   0.000000  0.000000  0.876805  0.769678
    O   O1   0.103223  0.000000  0.906603  -0.638136
    O   O2   0.896777  0.000000  0.906603  -0.654478
    C   C2   0.000000  0.753610  0.000000  0.861153
    O   O3   0.103223  0.813206  0.000000  -0.675727
    O   O4   0.896777  0.813206  0.000000  -0.592926
    C   C3   0.000000  0.000000  0.123195  0.718494
    O   O5   0.103223  0.000000  0.093397  -0.549881
    O   O6   0.896777  0.000000  0.093397  -0.666968
    C   C4   0.000000  0.246390  0.000000  0.760061
    O   O7   0.103223  0.186794  0.000000  -0.569466
    O   O8   0.896777  0.186794  0.000000  -0.548819
    Cu  Cu3  0.000000  0.870293  0.500000  0.970847
    Cu  Cu4  0.000000  0.129707  0.500000  1.026517
    C   C5   0.000000  0.000000  0.376805  0.800640
    O   O9   0.000000  0.103223  0.406603  -0.640073
    O   O10  0.000000  0.896777  0.406603  -0.644728
    C   C6   0.246390  0.000000  0.500000  0.830502
    O   O11  0.186794  0.103223  0.500000  -0.655050
    O   O12  0.186794  0.896777  0.500000  -0.592205
    C   C7   0.000000  0.000000  0.623195  0.696464
    O   O13  0.000000  0.103223  0.593397  -0.631839
    O   O14  0.000000  0.896777  0.593397  -0.538411
    C   C8   0.753610  0.000000  0.500000  0.710025
    O   O15  0.813206  0.103223  0.500000  -0.571257
    O   O16  0.813206  0.896777  0.500000  -0.544767
    C   C9   0.059542  0.809399  0.745739  0.286191
    C   C10  0.158611  0.779049  0.792248  -0.488217
    C   C11  0.225845  0.653964  0.785069  0.591662
    C   C12  0.201835  0.571263  0.734635  -0.439609
    C   C13  0.105907  0.599452  0.690808  0.060473
    C   C14  0.029273  0.713176  0.698738  -0.319257
    O   O17  0.323328  0.633294  0.827882  -0.413987
    C   C15  0.288968  0.521399  0.869499  -0.127751
    C   C16  0.396718  0.513032  0.922491  0.324692
    C   C17  0.383507  0.630963  0.969051  -0.403921
    H   H1   0.200049  0.841991  0.828522  0.200129
    H   H2   0.250848  0.479714  0.734469  0.197183
    H   H3   0.084660  0.529163  0.654284  0.095069
    H   H4   0.950558  0.726857  0.662760  0.127704
    H   H5   0.294577  0.440206  0.838156  0.065036
    H   H6   0.190165  0.529238  0.892757  0.015136
    H   H7   0.500625  0.499375  0.906268  -0.015972
    H   H8   0.376204  0.421497  0.951755  -0.117333
    H   H9   0.284659  0.634025  0.991385  -0.002289
    H   H10  0.392996  0.717716  0.934506  0.080235
    H   H11  0.458048  0.632416  0.006482  0.140336
    C   C18  0.004354  0.937697  0.752691  -0.225748
    C   C19  0.976941  0.015619  0.696806  -0.016130
    N   N1   0.920227  0.129027  0.721368  -0.047761
    N   N2   0.941568  0.147273  0.783380  -0.401487
    C   C20  0.979119  0.028979  0.804798  0.276156
    H   H12  0.904648  0.214265  0.694116  0.292656
    C   C21  0.190601  0.059542  0.245739  0.310465
    C   C22  0.220951  0.158611  0.292248  -0.491226
    C   C23  0.346036  0.225845  0.285069  0.564968
    C   C24  0.428737  0.201835  0.234635  -0.388043
    C   C25  0.400548  0.105907  0.190808  0.002609
    C   C26  0.286824  0.029273  0.198738  -0.321237
    O   O18  0.366706  0.323328  0.327882  -0.398956
    C   C27  0.478601  0.288968  0.369499  -0.134710
    C   C28  0.486968  0.396718  0.422491  0.296930
    C   C29  0.369037  0.383507  0.469051  -0.309909
    H   H13  0.158009  0.200049  0.328522  0.201980
    H   H14  0.520286  0.250848  0.234469  0.172134
    H   H15  0.470837  0.084660  0.154284  0.129561
    H   H16  0.273143  0.950558  0.162760  0.128863
    H   H17  0.559794  0.294577  0.338156  0.072989
    H   H18  0.470762  0.190165  0.392757  0.019271
    H   H19  0.500625  0.500625  0.406268  -0.017840
    H   H20  0.578503  0.376204  0.451755  -0.108301
    H   H21  0.365975  0.284659  0.491385  -0.032271
    H   H22  0.282284  0.392996  0.434506  0.064023
    H   H23  0.367584  0.458048  0.506482  0.101650
    C   C30  0.062303  0.004354  0.252691  -0.269195
    C   C31  0.984381  0.976941  0.196806  -0.000055
    N   N3   0.870973  0.920227  0.221368  0.003238
    N   N4   0.852727  0.941568  0.283380  -0.430223
    C   C32  0.971021  0.979119  0.304798  0.270639
    H   H24  0.785735  0.904648  0.194116  0.290313
    C   C33  0.823122  0.508523  0.046337  0.143434
    C   C34  0.731609  0.415504  0.022041  -0.312094
    C   C35  0.595619  0.429863  0.042494  0.351459
    C   C36  0.554118  0.530731  0.080222  -0.287782
    C   C37  0.641882  0.618384  0.104171  -0.035690
    C   C38  0.776486  0.602523  0.091058  -0.244709
    O   O19  0.512073  0.344237  0.015336  -0.205173
    C   C39  0.457247  0.261002  0.067045  0.069270
    C   C40  0.375140  0.155018  0.031908  0.174981
    C   C41  0.467871  0.061898  0.994884  -0.301960
    H   H25  0.746815  0.342956  0.985137  0.144845
    H   H26  0.454726  0.531063  0.095261  0.150499
    H   H27  0.607204  0.691432  0.136534  0.101371
    H   H28  0.841819  0.674481  0.114051  0.096850
    H   H29  0.395868  0.323688  0.093769  0.017706
    H   H30  0.532654  0.214485  0.099206  0.014579
    H   H31  0.292009  0.187465  0.000000  0.011328
    H   H32  0.324920  0.096490  0.071523  -0.030749
    H   H33  0.539932  0.017231  0.028750  0.038974
    H   H34  0.522505  0.130988  0.960857  0.042504
    H   H35  0.416190  0.987036  0.968016  0.056588
    C   C42  0.952866  0.494617  0.020488  0.059863
    C   C43  0.027350  0.606388  0.002630  -0.301721
    N   N5   0.147644  0.557264  0.982586  0.181746
    N   N6   0.145455  0.433240  0.968590  -0.154178
    C   C44  0.035257  0.390403  0.997137  -0.122670
    H   H36  0.218932  0.611768  0.957958  0.350878
    C   C45  0.491477  0.823122  0.546337  0.241777
    C   C46  0.584496  0.731609  0.522041  -0.368192
    C   C47  0.570137  0.595619  0.542494  0.439594
    C   C48  0.469269  0.554118  0.580222  -0.369126
    C   C49  0.381616  0.641882  0.604171  0.022055
    C   C50  0.397477  0.776486  0.591058  -0.371356
    O   O20  0.655763  0.512073  0.515336  -0.216523
    C   C51  0.738998  0.457247  0.567045  -0.010040
    C   C52  0.844982  0.375140  0.531908  0.285410
    C   C53  0.938102  0.467871  0.494884  -0.313721
    H   H37  0.657044  0.746815  0.485137  0.160819
    H   H38  0.468937  0.454726  0.595261  0.170665
    H   H39  0.308568  0.607204  0.636534  0.120750
    H   H40  0.325519  0.841819  0.614051  0.184138
    H   H41  0.676312  0.395868  0.593769  -0.000950
    H   H42  0.785515  0.532654  0.599206  0.039132
    H   H43  0.812535  0.292009  0.500000  -0.010301
    H   H44  0.903510  0.324920  0.571523  -0.078967
    H   H45  0.982769  0.539932  0.528750  0.053178
    H   H46  0.869012  0.522505  0.460857  0.042600
    H   H47  0.012964  0.416190  0.468016  0.051519
    C   C54  0.505383  0.952866  0.520488  -0.047668
    C   C55  0.393612  0.027350  0.502630  -0.251385
    N   N7   0.442736  0.147644  0.482586  0.179892
    N   N8   0.566760  0.145455  0.468590  -0.150063
    C   C56  0.609597  0.035257  0.497137  -0.059501
    H   H48  0.388232  0.218932  0.457958  0.330844
