# Generated by REPEAT Assigner based on pymatgen
data_DB13-hxg-Syn039820
_audit_creation_date              2022-05-24
_audit_creation_method            REPEAT_Assigner
_cell_length_a                    24.070900
_cell_length_b                    24.070900
_cell_length_c                    24.070900
_cell_angle_alpha                 90.000000
_cell_angle_beta                  90.000000
_cell_angle_gamma                 90.000000
_cell_volume                      13946.877487
_symmetry_space_group_name_H-M    P1
_symmetry_Int_Tables_number       1
loop_
    _symmetry_equiv_pos_site_id
    _symmetry_equiv_pos_as_xyz
    1  x,y,z
loop_
    _atom_site_type_symbol
    _atom_site_label
    _atom_site_fract_x
    _atom_site_fract_y
    _atom_site_fract_z
    _atom_type_partial_charge
    Ti  Ti1   0.995417  0.995130  0.096866  1.446751
    Ti  Ti2   0.004582  0.004870  0.903136  1.446927
    Ti  Ti3   0.903490  0.005702  0.007713  1.420059
    Ti  Ti4   0.096511  0.994297  0.992285  1.419765
    Ti  Ti5   0.006420  0.903237  0.007503  1.417491
    Ti  Ti6   0.993581  0.096762  0.992496  1.417001
    O   O1    0.948553  0.948669  0.037540  -1.040748
    O   O2    0.051449  0.051330  0.962459  -1.040698
    O   O3    0.965784  0.052900  0.050839  -1.028738
    O   O4    0.034217  0.947099  0.949160  -1.028804
    O   O5    0.052442  0.965435  0.052202  -1.037339
    O   O6    0.947557  0.034566  0.947799  -1.037349
    O   O7    0.921642  0.001629  0.143033  -0.621792
    O   O8    0.855149  0.999079  0.077450  -0.563496
    C   C1    0.871354  0.998131  0.126249  1.109938
    O   O9    0.078359  0.998370  0.856966  -0.621741
    O   O10   0.144852  0.000920  0.922549  -0.563454
    C   C2    0.128646  0.001869  0.873751  1.109958
    O   O11   0.997551  0.924847  0.144603  -0.611181
    O   O12   0.003725  0.858697  0.080635  -0.607149
    C   C3    0.000803  0.874104  0.129358  1.142872
    O   O13   0.002447  0.075154  0.855398  -0.611252
    O   O14   0.996276  0.141302  0.919363  -0.607237
    C   C4    0.999199  0.125895  0.870640  1.142987
    O   O15   0.857829  0.078100  0.004964  -0.631939
    O   O16   0.923769  0.142829  0.997944  -0.579515
    C   C5    0.873924  0.128747  0.001595  1.129026
    O   O17   0.142170  0.921901  0.995037  -0.631983
    O   O18   0.076232  0.857170  0.002054  -0.579525
    C   C6    0.126075  0.871254  0.998406  1.129021
    Ti  Ti7   0.504583  0.504870  0.096866  1.465772
    Ti  Ti8   0.495418  0.495130  0.903136  1.465508
    Ti  Ti9   0.596510  0.494298  0.007713  1.449230
    Ti  Ti10  0.403489  0.505703  0.992285  1.448808
    Ti  Ti11  0.493580  0.596763  0.007503  1.472102
    Ti  Ti12  0.506419  0.403238  0.992496  1.471986
    O   O19   0.551447  0.551331  0.037540  -1.052363
    O   O20   0.448551  0.448670  0.962459  -1.051820
    O   O21   0.534216  0.447100  0.050839  -1.041217
    O   O22   0.465783  0.552901  0.949160  -1.041514
    O   O23   0.447558  0.534565  0.052202  -1.036885
    O   O24   0.552443  0.465434  0.947799  -1.037092
    O   O25   0.578358  0.498371  0.143033  -0.608513
    O   O26   0.644851  0.500921  0.077450  -0.541112
    C   C7    0.628646  0.501869  0.126249  1.044133
    O   O27   0.421641  0.501630  0.856966  -0.608588
    O   O28   0.355148  0.499080  0.922549  -0.541172
    C   C8    0.371354  0.498131  0.873751  1.044558
    O   O29   0.502449  0.575153  0.144603  -0.637410
    O   O30   0.496275  0.641303  0.080635  -0.604254
    C   C9    0.499197  0.625896  0.129358  1.063270
    O   O31   0.497553  0.424846  0.855398  -0.637509
    O   O32   0.503724  0.358698  0.919363  -0.604281
    C   C10   0.500801  0.374105  0.870640  1.063699
    O   O33   0.642171  0.421900  0.004964  -0.647373
    O   O34   0.576231  0.357171  0.997944  -0.630011
    C   C11   0.626076  0.371253  0.001595  1.073000
    O   O35   0.357830  0.578099  0.995037  -0.647283
    O   O36   0.423768  0.642830  0.002054  -0.630042
    C   C12   0.373925  0.628746  0.998406  1.073143
    Ti  Ti13  0.504583  0.995130  0.403134  1.476781
    Ti  Ti14  0.495418  0.004870  0.596864  1.477081
    Ti  Ti15  0.596510  0.005702  0.492287  1.479108
    Ti  Ti16  0.403489  0.994297  0.507715  1.479114
    Ti  Ti17  0.493580  0.903237  0.492497  1.436701
    Ti  Ti18  0.506419  0.096762  0.507504  1.436364
    O   O37   0.551447  0.948669  0.462460  -1.060047
    O   O38   0.448551  0.051330  0.537541  -1.059650
    O   O39   0.534216  0.052900  0.449161  -1.020046
    O   O40   0.465783  0.947099  0.550840  -1.020290
    O   O41   0.447558  0.965435  0.447798  -1.050764
    O   O42   0.552443  0.034566  0.552201  -1.051006
    O   O43   0.578358  0.001629  0.356967  -0.657920
    O   O44   0.644851  0.999079  0.422550  -0.622114
    C   C13   0.628646  0.998131  0.373751  1.072151
    O   O45   0.421641  0.998370  0.643034  -0.657954
    O   O46   0.355148  0.000920  0.577451  -0.622151
    C   C14   0.371354  0.001869  0.626249  1.072236
    O   O47   0.502449  0.924847  0.355397  -0.571256
    O   O48   0.496275  0.858697  0.419365  -0.573416
    C   C15   0.499197  0.874104  0.370642  1.030302
    O   O49   0.497553  0.075154  0.644602  -0.571212
    O   O50   0.503724  0.141302  0.580637  -0.573416
    C   C16   0.500801  0.125895  0.629360  1.030352
    O   O51   0.642171  0.078100  0.495036  -0.620037
    O   O52   0.576231  0.142829  0.502056  -0.608854
    C   C17   0.626076  0.128747  0.498405  1.047887
    O   O53   0.357830  0.921901  0.504963  -0.619942
    O   O54   0.423768  0.857170  0.497946  -0.608858
    C   C18   0.373925  0.871254  0.501594  1.047838
    Ti  Ti19  0.995417  0.504870  0.403134  1.500262
    Ti  Ti20  0.004582  0.495130  0.596864  1.500263
    Ti  Ti21  0.903490  0.494298  0.492287  1.442141
    Ti  Ti22  0.096511  0.505703  0.507715  1.441970
    Ti  Ti23  0.006420  0.596763  0.492497  1.442568
    Ti  Ti24  0.993581  0.403238  0.507504  1.442712
    O   O55   0.948553  0.551331  0.462460  -1.037632
    O   O56   0.051449  0.448670  0.537541  -1.037316
    O   O57   0.965784  0.447100  0.449161  -1.038804
    O   O58   0.034217  0.552901  0.550840  -1.039079
    O   O59   0.052442  0.534565  0.447798  -1.049976
    O   O60   0.947557  0.465434  0.552201  -1.050139
    O   O61   0.921642  0.498371  0.356967  -0.627731
    O   O62   0.855149  0.500921  0.422550  -0.600121
    C   C19   0.871354  0.501869  0.373751  1.041493
    O   O63   0.078359  0.501630  0.643034  -0.627756
    O   O64   0.144852  0.499080  0.577451  -0.600247
    C   C20   0.128646  0.498131  0.626249  1.041906
    O   O65   0.997551  0.575153  0.355397  -0.657274
    O   O66   0.003725  0.641303  0.419365  -0.626561
    C   C21   0.000803  0.625896  0.370642  1.071130
    O   O67   0.002447  0.424846  0.644602  -0.657274
    O   O68   0.996276  0.358698  0.580637  -0.626469
    C   C22   0.999199  0.374105  0.629360  1.071210
    O   O69   0.857829  0.421900  0.495036  -0.598851
    O   O70   0.923769  0.357171  0.502056  -0.543591
    C   C23   0.873924  0.371253  0.498405  1.032011
    O   O71   0.142170  0.578099  0.504963  -0.598819
    O   O72   0.076232  0.642830  0.497946  -0.543659
    C   C24   0.126075  0.628746  0.501594  1.032055
    C   C25   0.838869  0.905055  0.214101  -0.177783
    C   C26   0.813706  0.857683  0.182615  0.608965
    C   C27   0.831622  0.803789  0.212363  -0.500652
    C   C28   0.837321  0.854139  0.121839  -0.473071
    H   H1    0.848298  0.897162  0.261373  0.026636
    H   H2    0.883707  0.910184  0.202553  0.005703
    H   H3    0.768181  0.859718  0.185578  -0.099395
    H   H4    0.815221  0.795265  0.253320  0.092087
    H   H5    0.814785  0.767384  0.185215  0.054871
    H   H6    0.878647  0.802118  0.213574  0.224497
    H   H7    0.822365  0.815422  0.102382  0.094845
    H   H8    0.817092  0.891666  0.101999  0.017285
    H   H9    0.881476  0.857311  0.120527  0.108336
    C   C29   0.810103  0.961159  0.213727  0.266002
    C   C30   0.763826  0.969803  0.249489  -0.158899
    C   C31   0.735031  0.020761  0.248173  0.428754
    C   C32   0.691477  0.029724  0.286764  -0.226023
    C   C33   0.675412  0.989751  0.327705  -0.284177
    C   C34   0.699423  0.938503  0.327744  -0.066070
    C   C35   0.741812  0.928122  0.289169  -0.062498
    C   C36   0.749674  0.061197  0.213127  -0.464684
    C   C37   0.790465  0.050709  0.174594  0.135611
    C   C38   0.823658  0.001741  0.175561  -0.566362
    H   H10   0.669674  0.069181  0.283516  0.097294
    H   H11   0.684623  0.903236  0.353155  0.074437
    H   H12   0.762538  0.889931  0.287851  0.058683
    H   H13   0.727690  0.101403  0.213786  0.176628
    H   H14   0.793902  0.084061  0.145309  0.033186
    C   C39   0.661131  0.594945  0.214101  -0.269901
    C   C40   0.686294  0.642317  0.182615  0.624972
    C   C41   0.668378  0.696211  0.212363  -0.365924
    C   C42   0.662679  0.645861  0.121839  -0.426647
    H   H15   0.651702  0.602838  0.261373  0.027383
    H   H16   0.616293  0.589816  0.202553  0.028878
    H   H17   0.731819  0.640282  0.185578  -0.111488
    H   H18   0.684779  0.704735  0.253320  0.059187
    H   H19   0.685215  0.732616  0.185215  0.069950
    H   H20   0.621353  0.697882  0.213574  0.110284
    H   H21   0.677635  0.684578  0.102382  0.066533
    H   H22   0.682908  0.608334  0.101999  0.008096
    H   H23   0.618524  0.642689  0.120527  0.126099
    C   C43   0.689897  0.538841  0.213727  0.285656
    C   C44   0.736174  0.530197  0.249489  -0.113308
    C   C45   0.764969  0.479239  0.248173  0.307680
    C   C46   0.808523  0.470276  0.286764  -0.171173
    C   C47   0.824588  0.510249  0.327705  -0.238663
    C   C48   0.800577  0.561497  0.327744  -0.159348
    C   C49   0.758188  0.571878  0.289169  -0.051171
    C   C50   0.750326  0.438803  0.213127  -0.264059
    C   C51   0.709535  0.449291  0.174594  -0.063918
    C   C52   0.676342  0.498259  0.175561  -0.466973
    H   H24   0.830326  0.430819  0.283516  0.046653
    H   H25   0.815377  0.596764  0.353155  0.100219
    H   H26   0.737462  0.610069  0.287851  0.079998
    H   H27   0.772310  0.398597  0.213786  0.131994
    H   H28   0.706098  0.415939  0.145309  0.111521
    C   C53   0.214101  0.838869  0.905055  -0.194516
    C   C54   0.182615  0.813706  0.857683  0.602990
    C   C55   0.212363  0.831622  0.803789  -0.499032
    C   C56   0.121839  0.837321  0.854139  -0.471198
    H   H29   0.261373  0.848298  0.897162  0.026521
    H   H30   0.202553  0.883707  0.910184  0.018966
    H   H31   0.185578  0.768181  0.859718  -0.097125
    H   H32   0.253320  0.815221  0.795265  0.092697
    H   H33   0.185215  0.814785  0.767384  0.053826
    H   H34   0.213574  0.878647  0.802118  0.224603
    H   H35   0.102382  0.822365  0.815422  0.094881
    H   H36   0.101999  0.817092  0.891666  0.015104
    H   H37   0.120527  0.881476  0.857311  0.122713
    C   C57   0.213727  0.810103  0.961159  0.298991
    C   C58   0.249489  0.763826  0.969803  -0.174316
    C   C59   0.248173  0.735031  0.020761  0.453239
    C   C60   0.286764  0.691477  0.029724  -0.230527
    C   C61   0.327705  0.675412  0.989751  -0.296889
    C   C62   0.327744  0.699423  0.938503  -0.057684
    C   C63   0.289169  0.741812  0.928122  -0.062994
    C   C64   0.213127  0.749674  0.061197  -0.482293
    C   C65   0.174594  0.790465  0.050709  0.159692
    C   C66   0.175561  0.823658  0.001741  -0.605228
    H   H38   0.283516  0.669674  0.069181  0.094696
    H   H39   0.353155  0.684623  0.903236  0.077829
    H   H40   0.287851  0.762538  0.889931  0.061348
    H   H41   0.213786  0.727690  0.101403  0.183117
    H   H42   0.145309  0.793902  0.084061  0.023457
    C   C67   0.214101  0.661131  0.594945  -0.276071
    C   C68   0.182615  0.686294  0.642317  0.613749
    C   C69   0.212363  0.668378  0.696211  -0.364244
    C   C70   0.121839  0.662679  0.645861  -0.426660
    H   H43   0.261373  0.651702  0.602838  0.026848
    H   H44   0.202553  0.616293  0.589816  0.037170
    H   H45   0.185578  0.731819  0.640282  -0.107840
    H   H46   0.253320  0.684779  0.704735  0.060049
    H   H47   0.185215  0.685215  0.732616  0.070275
    H   H48   0.213574  0.621353  0.697882  0.110334
    H   H49   0.102382  0.677635  0.684578  0.066844
    H   H50   0.101999  0.682908  0.608334  0.007530
    H   H51   0.120527  0.618524  0.642689  0.143503
    C   C71   0.213727  0.689897  0.538841  0.311352
    C   C72   0.249489  0.736174  0.530197  -0.126624
    C   C73   0.248173  0.764969  0.479239  0.326277
    C   C74   0.286764  0.808523  0.470276  -0.169791
    C   C75   0.327705  0.824588  0.510249  -0.251428
    C   C76   0.327744  0.800577  0.561497  -0.150957
    C   C77   0.289169  0.758188  0.571878  -0.049344
    C   C78   0.213127  0.750326  0.438803  -0.272686
    C   C79   0.174594  0.709535  0.449291  -0.050346
    C   C80   0.175561  0.676342  0.498259  -0.493006
    H   H52   0.283516  0.830326  0.430819  0.043184
    H   H53   0.353155  0.815377  0.596764  0.104690
    H   H54   0.287851  0.737462  0.610069  0.080742
    H   H55   0.213786  0.772310  0.398597  0.135231
    H   H56   0.145309  0.706098  0.415939  0.108892
    C   C81   0.905055  0.214101  0.838869  -0.165779
    C   C82   0.857683  0.182615  0.813706  0.601589
    C   C83   0.803789  0.212363  0.831622  -0.502463
    C   C84   0.854139  0.121839  0.837321  -0.469285
    H   H57   0.897162  0.261373  0.848298  0.023485
    H   H58   0.910184  0.202553  0.883707  0.011956
    H   H59   0.859718  0.185578  0.768181  -0.098605
    H   H60   0.795265  0.253320  0.815221  0.091966
    H   H61   0.767384  0.185215  0.814785  0.056259
    H   H62   0.802118  0.213574  0.878647  0.223145
    H   H63   0.815422  0.102382  0.822365  0.093293
    H   H64   0.891666  0.101999  0.817092  0.019585
    H   H65   0.857311  0.120527  0.881476  0.117197
    C   C85   0.961159  0.213727  0.810103  0.272157
    C   C86   0.969803  0.249489  0.763826  -0.157643
    C   C87   0.020761  0.248173  0.735031  0.453308
    C   C88   0.029724  0.286764  0.691477  -0.247662
    C   C89   0.989751  0.327705  0.675412  -0.283772
    C   C90   0.938503  0.327744  0.699423  -0.049208
    C   C91   0.928122  0.289169  0.741812  -0.081082
    C   C92   0.061197  0.213127  0.749674  -0.479709
    C   C93   0.050709  0.174594  0.790465  0.154111
    C   C94   0.001741  0.175561  0.823658  -0.598768
    H   H66   0.069181  0.283516  0.669674  0.098740
    H   H67   0.903236  0.353155  0.684623  0.077071
    H   H68   0.889931  0.287851  0.762538  0.063537
    H   H69   0.101403  0.213786  0.727690  0.181131
    H   H70   0.084061  0.145309  0.793902  0.030954
    C   C95   0.594945  0.214101  0.661131  -0.235123
    C   C96   0.642317  0.182615  0.686294  0.611609
    C   C97   0.696211  0.212363  0.668378  -0.359953
    C   C98   0.645861  0.121839  0.662679  -0.419523
    H   H71   0.602838  0.261373  0.651702  0.018652
    H   H72   0.589816  0.202553  0.616293  0.023919
    H   H73   0.640282  0.185578  0.731819  -0.112568
    H   H74   0.704735  0.253320  0.684779  0.058544
    H   H75   0.732616  0.185215  0.685215  0.071583
    H   H76   0.697882  0.213574  0.621353  0.103550
    H   H77   0.684578  0.102382  0.677635  0.062842
    H   H78   0.608334  0.101999  0.682908  0.012630
    H   H79   0.642689  0.120527  0.618524  0.135656
    C   C99   0.538841  0.213727  0.689897  0.285978
    C   C100  0.530197  0.249489  0.736174  -0.114694
    C   C101  0.479239  0.248173  0.764969  0.321840
    C   C102  0.470276  0.286764  0.808523  -0.185164
    C   C103  0.510249  0.327705  0.824588  -0.243509
    C   C104  0.561497  0.327744  0.800577  -0.152348
    C   C105  0.571878  0.289169  0.758188  -0.054470
    C   C106  0.438803  0.213127  0.750326  -0.273067
    C   C107  0.449291  0.174594  0.709535  -0.043681
    C   C108  0.498259  0.175561  0.676342  -0.487187
    H   H80   0.430819  0.283516  0.830326  0.049366
    H   H81   0.596764  0.353155  0.815377  0.103437
    H   H82   0.610069  0.287851  0.737462  0.080276
    H   H83   0.398597  0.213786  0.772310  0.135872
    H   H84   0.415939  0.145309  0.706098  0.102981
    C   C109  0.161131  0.094945  0.785899  -0.178374
    C   C110  0.186294  0.142317  0.817385  0.608910
    C   C111  0.168378  0.196211  0.787637  -0.500636
    C   C112  0.162679  0.145861  0.878161  -0.473016
    H   H85   0.151702  0.102838  0.738627  0.026755
    H   H86   0.116293  0.089816  0.797447  0.005836
    H   H87   0.231819  0.140282  0.814422  -0.099320
    H   H88   0.184779  0.204735  0.746680  0.092101
    H   H89   0.185215  0.232616  0.814785  0.054867
    H   H90   0.121353  0.197882  0.786426  0.224550
    H   H91   0.177635  0.184578  0.897618  0.094844
    H   H92   0.182908  0.108334  0.898001  0.017286
    H   H93   0.118524  0.142689  0.879473  0.108306
    C   C113  0.189897  0.038841  0.786273  0.266364
    C   C114  0.236174  0.030197  0.750511  -0.158957
    C   C115  0.264969  0.979239  0.751827  0.428592
    C   C116  0.308523  0.970276  0.713236  -0.225666
    C   C117  0.324588  0.010249  0.672295  -0.284301
    C   C118  0.300577  0.061497  0.672256  -0.066008
    C   C119  0.258188  0.071878  0.710831  -0.062511
    C   C120  0.250326  0.938803  0.786873  -0.464861
    C   C121  0.209535  0.949291  0.825406  0.136047
    C   C122  0.176342  0.998259  0.824439  -0.566701
    H   H94   0.330326  0.930819  0.716484  0.097143
    H   H95   0.315377  0.096764  0.646845  0.074367
    H   H96   0.237462  0.110069  0.712149  0.058730
    H   H97   0.272310  0.898597  0.786214  0.176701
    H   H98   0.206098  0.915939  0.854691  0.033008
    C   C123  0.338869  0.405055  0.785899  -0.269519
    C   C124  0.313706  0.357683  0.817385  0.625224
    C   C125  0.331622  0.303789  0.787637  -0.365974
    C   C126  0.337321  0.354139  0.878161  -0.426511
    H   H99   0.348298  0.397162  0.738627  0.027268
    H   H100  0.383707  0.410184  0.797447  0.028653
    H   H101  0.268181  0.359718  0.814422  -0.111631
    H   H102  0.315221  0.295265  0.746680  0.059188
    H   H103  0.314785  0.267384  0.814785  0.069911
    H   H104  0.378647  0.302118  0.786426  0.110321
    H   H105  0.322365  0.315422  0.897618  0.066561
    H   H106  0.317092  0.391666  0.898001  0.008006
    H   H107  0.381476  0.357311  0.879473  0.125744
    C   C127  0.310103  0.461159  0.786273  0.285886
    C   C128  0.263826  0.469803  0.750511  -0.113496
    C   C129  0.235031  0.520761  0.751827  0.307722
    C   C130  0.191477  0.529724  0.713236  -0.170891
    C   C131  0.175412  0.489751  0.672295  -0.239322
    C   C132  0.199423  0.438503  0.672256  -0.158903
    C   C133  0.241812  0.428122  0.710831  -0.051157
    C   C134  0.249674  0.561197  0.786873  -0.264111
    C   C135  0.290465  0.550709  0.825406  -0.063728
    C   C136  0.323658  0.501741  0.824439  -0.467452
    H   H108  0.169674  0.569181  0.716484  0.046559
    H   H109  0.184623  0.403236  0.646845  0.100027
    H   H110  0.262538  0.389931  0.712149  0.079951
    H   H111  0.227690  0.601403  0.786214  0.131992
    H   H112  0.293902  0.584061  0.854691  0.111456
    C   C137  0.785899  0.161131  0.094945  -0.195170
    C   C138  0.817385  0.186294  0.142317  0.602996
    C   C139  0.787637  0.168378  0.196211  -0.499033
    C   C140  0.878161  0.162679  0.145861  -0.471164
    H   H113  0.738627  0.151702  0.102838  0.026658
    H   H114  0.797447  0.116293  0.089816  0.019127
    H   H115  0.814422  0.231819  0.140282  -0.097068
    H   H116  0.746680  0.184779  0.204735  0.092706
    H   H117  0.814785  0.185215  0.232616  0.053827
    H   H118  0.786426  0.121353  0.197882  0.224640
    H   H119  0.897618  0.177635  0.184578  0.094887
    H   H120  0.898001  0.182908  0.108334  0.015106
    H   H121  0.879473  0.118524  0.142689  0.122693
    C   C141  0.786273  0.189897  0.038841  0.299333
    C   C142  0.750511  0.236174  0.030197  -0.174362
    C   C143  0.751827  0.264969  0.979239  0.453110
    C   C144  0.713236  0.308523  0.970276  -0.230446
    C   C145  0.672295  0.324588  0.010249  -0.296487
    C   C146  0.672256  0.300577  0.061497  -0.058068
    C   C147  0.710831  0.258188  0.071878  -0.062912
    C   C148  0.786873  0.250326  0.938803  -0.482400
    C   C149  0.825406  0.209535  0.949291  0.160083
    C   C150  0.824439  0.176342  0.998259  -0.605542
    H   H122  0.716484  0.330326  0.930819  0.094645
    H   H123  0.646845  0.315377  0.096764  0.077926
    H   H124  0.712149  0.237462  0.110069  0.061387
    H   H125  0.786214  0.272310  0.898597  0.183164
    H   H126  0.854691  0.206098  0.915939  0.023287
    C   C151  0.785899  0.338869  0.405055  -0.275469
    C   C152  0.817385  0.313706  0.357683  0.613690
    C   C153  0.787637  0.331622  0.303789  -0.364270
    C   C154  0.878161  0.337321  0.354139  -0.426590
    H   H127  0.738627  0.348298  0.397162  0.026747
    H   H128  0.797447  0.383707  0.410184  0.036932
    H   H129  0.814422  0.268181  0.359718  -0.107872
    H   H130  0.746680  0.315221  0.295265  0.060063
    H   H131  0.814785  0.314785  0.267384  0.070263
    H   H132  0.786426  0.378647  0.302118  0.110300
    H   H133  0.897618  0.322365  0.315422  0.066851
    H   H134  0.898001  0.317092  0.391666  0.007457
    H   H135  0.879473  0.381476  0.357311  0.143493
    C   C155  0.786273  0.310103  0.461159  0.311142
    C   C156  0.750511  0.263826  0.469803  -0.126720
    C   C157  0.751827  0.235031  0.520761  0.326278
    C   C158  0.713236  0.191477  0.529724  -0.169714
    C   C159  0.672295  0.175412  0.489751  -0.251483
    C   C160  0.672256  0.199423  0.438503  -0.150938
    C   C161  0.710831  0.241812  0.428122  -0.049257
    C   C162  0.786873  0.249674  0.561197  -0.272541
    C   C163  0.825406  0.290465  0.550709  -0.050655
    C   C164  0.824439  0.323658  0.501741  -0.492718
    H   H136  0.716484  0.169674  0.569181  0.043133
    H   H137  0.646845  0.184623  0.403236  0.104667
    H   H138  0.712149  0.262538  0.389931  0.080690
    H   H139  0.786214  0.227690  0.601403  0.135203
    H   H140  0.854691  0.293902  0.584061  0.108999
    C   C165  0.094945  0.785899  0.161131  -0.166358
    C   C166  0.142317  0.817385  0.186294  0.601548
    C   C167  0.196211  0.787637  0.168378  -0.502485
    C   C168  0.145861  0.878161  0.162679  -0.469200
    H   H141  0.102838  0.738627  0.151702  0.023605
    H   H142  0.089816  0.797447  0.116293  0.012084
    H   H143  0.140282  0.814422  0.231819  -0.098538
    H   H144  0.204735  0.746680  0.184779  0.091978
    H   H145  0.232616  0.814785  0.185215  0.056267
    H   H146  0.197882  0.786426  0.121353  0.223198
    H   H147  0.184578  0.897618  0.177635  0.093289
    H   H148  0.108334  0.898001  0.182908  0.019574
    H   H149  0.142689  0.879473  0.118524  0.117150
    C   C169  0.038841  0.786273  0.189897  0.272469
    C   C170  0.030197  0.750511  0.236174  -0.157717
    C   C171  0.979239  0.751827  0.264969  0.453196
    C   C172  0.970276  0.713236  0.308523  -0.247675
    C   C173  0.010249  0.672295  0.324588  -0.283265
    C   C174  0.061497  0.672256  0.300577  -0.049559
    C   C175  0.071878  0.710831  0.258188  -0.081008
    C   C176  0.938803  0.786873  0.250326  -0.479790
    C   C177  0.949291  0.825406  0.209535  0.154460
    C   C178  0.998259  0.824439  0.176342  -0.599000
    H   H150  0.930819  0.716484  0.330326  0.098693
    H   H151  0.096764  0.646845  0.315377  0.077136
    H   H152  0.110069  0.712149  0.237462  0.063586
    H   H153  0.898597  0.786214  0.272310  0.181179
    H   H154  0.915939  0.854691  0.206098  0.030804
    C   C179  0.405055  0.785899  0.338869  -0.234443
    C   C180  0.357683  0.817385  0.313706  0.611436
    C   C181  0.303789  0.787637  0.331622  -0.359882
    C   C182  0.354139  0.878161  0.337321  -0.419450
    H   H155  0.397162  0.738627  0.348298  0.018547
    H   H156  0.410184  0.797447  0.383707  0.023728
    H   H157  0.359718  0.814422  0.268181  -0.112582
    H   H158  0.295265  0.746680  0.315221  0.058512
    H   H159  0.267384  0.814785  0.314785  0.071572
    H   H160  0.302118  0.786426  0.378647  0.103531
    H   H161  0.315422  0.897618  0.322365  0.062843
    H   H162  0.391666  0.898001  0.317092  0.012664
    H   H163  0.357311  0.879473  0.381476  0.135512
    C   C183  0.461159  0.786273  0.310103  0.285498
    C   C184  0.469803  0.750511  0.263826  -0.114638
    C   C185  0.520761  0.751827  0.235031  0.321945
    C   C186  0.529724  0.713236  0.191477  -0.185351
    C   C187  0.489751  0.672295  0.175412  -0.243181
    C   C188  0.438503  0.672256  0.199423  -0.152331
    C   C189  0.428122  0.710831  0.241812  -0.054573
    C   C190  0.561197  0.786873  0.249674  -0.272988
    C   C191  0.550709  0.825406  0.290465  -0.043971
    C   C192  0.501741  0.824439  0.323658  -0.486767
    H   H164  0.569181  0.716484  0.169674  0.049348
    H   H165  0.403236  0.646845  0.184623  0.103446
    H   H166  0.389931  0.712149  0.262538  0.080295
    H   H167  0.601403  0.786214  0.227690  0.135860
    H   H168  0.584061  0.854691  0.293902  0.103098
