data_DB15-cds_N128_E168_opt_repeat
_audit_creation_date              2024-02-20
_audit_creation_method            'Materials Studio'
_symmetry_space_group_name_H-M    'P1'
_symmetry_Int_Tables_number       1
_symmetry_cell_setting            triclinic
loop_
_symmetry_equiv_pos_as_xyz
  x,y,z
_cell_length_a                    11.9162
_cell_length_b                    11.8493
_cell_length_c                    23.6200
_cell_angle_alpha                 90.9982
_cell_angle_beta                  90.9881
_cell_angle_gamma                 89.9881
loop_
_atom_site_label
_atom_site_type_symbol
_atom_site_fract_x
_atom_site_fract_y
_atom_site_fract_z
_atom_site_U_iso_or_equiv
_atom_site_adp_type
_atom_site_occupancy
C1     C     0.69030   0.06669   0.00814   0.00000  Uiso   1.00
C2     C     0.73883   0.08938   0.95612   0.00000  Uiso   1.00
C3     C     0.67676   0.09771   0.90650   0.00000  Uiso   1.00
C4     C     0.75172   0.09634   0.86334   0.00000  Uiso   1.00
C5     C     0.85717   0.08404   0.88783   0.00000  Uiso   1.00
C6     C     0.00048   0.03884   0.14293   0.00000  Uiso   1.00
H1     H     0.16557   0.00650   0.80745   0.00000  Uiso   1.00
H2     H     0.33213   0.02010   0.88076   0.00000  Uiso   1.00
H3     H     0.36621   0.08964   0.10126   0.00000  Uiso   1.00
H4     H     0.22342   0.07980   0.18307   0.00000  Uiso   1.00
N1     N     0.08622   0.07468   0.93635   0.00000  Uiso   1.00
N2     N     0.10297   0.08002   0.05677   0.00000  Uiso   1.00
N3     N     0.86617   0.06907   0.06480   0.00000  Uiso   1.00
N4     N     0.84992   0.08575   0.94483   0.00000  Uiso   1.00
H5     H     0.78702   0.99066   0.19097   0.00000  Uiso   1.00
H6     H     0.62012   0.01054   0.11819   0.00000  Uiso   1.00
H7     H     0.58667   0.10030   0.90085   0.00000  Uiso   1.00
H8     H     0.72943   0.09798   0.81878   0.00000  Uiso   1.00
Pd1    Pd    0.97625   0.07839   0.99999   0.00000  Uiso   1.00
C7     C     0.06085   0.05419   0.88087   0.00000  Uiso   1.00
C8     C     0.15741   0.02926   0.85161   0.00000  Uiso   1.00
C9     C     0.24502   0.03617   0.89010   0.00000  Uiso   1.00
C10    C     0.19922   0.06290   0.94193   0.00000  Uiso   1.00
C11    C     0.26233   0.06685   0.99277   0.00000  Uiso   1.00
C12    C     0.21402   0.08451   0.04565   0.00000  Uiso   1.00
C13    C     0.27611   0.08779   0.09550   0.00000  Uiso   1.00
C14    C     0.20113   0.08237   0.13853   0.00000  Uiso   1.00
C15    C     0.09562   0.07284   0.11357   0.00000  Uiso   1.00
C16    C     0.95192   0.05204   0.85710   0.00000  Uiso   1.00
C17    C     0.89152   0.04380   0.11937   0.00000  Uiso   1.00
C18    C     0.79494   0.01682   0.14768   0.00000  Uiso   1.00
C19    C     0.70731   0.02707   0.10950   0.00000  Uiso   1.00
C20    C     0.75321   0.05805   0.05876   0.00000  Uiso   1.00
C21    C     0.96140   0.97881   0.64309   0.00000  Uiso   1.00
C22    C     0.96656   0.08247   0.61497   0.00000  Uiso   1.00
C23    C     0.95944   0.18727   0.64136   0.00000  Uiso   1.00
C24    C     0.98019   0.26600   0.60085   0.00000  Uiso   1.00
C25    C     0.99395   0.20727   0.55054   0.00000  Uiso   1.00
C26    C     0.01611   0.68561   0.50181   0.00000  Uiso   1.00
H9     H     0.05615   0.33958   0.38904   0.00000  Uiso   1.00
H10    H     0.05180   0.18124   0.31142   0.00000  Uiso   1.00
H11    H     0.96916   0.73600   0.31320   0.00000  Uiso   1.00
H12    H     0.98907   0.58707   0.39274   0.00000  Uiso   1.00
N5     N     0.99624   0.08945   0.43864   0.00000  Uiso   1.00
N6     N     0.98969   0.84927   0.44110   0.00000  Uiso   1.00
N7     N     0.99086   0.85555   0.56012   0.00000  Uiso   1.00
N8     N     0.98496   0.09501   0.55880   0.00000  Uiso   1.00
H13    H     0.03891   0.60534   0.61363   0.00000  Uiso   1.00
H14    H     0.01280   0.76416   0.69043   0.00000  Uiso   1.00
H15    H     0.94341   0.20718   0.68520   0.00000  Uiso   1.00
H16    H     0.98195   0.35639   0.60779   0.00000  Uiso   1.00
Pd2    Pd    0.98958   0.97254   0.49958   0.00000  Uiso   1.00
C27    C     0.01422   0.20126   0.44695   0.00000  Uiso   1.00
C28    C     0.03679   0.25193   0.39628   0.00000  Uiso   1.00
C29    C     0.03327   0.16833   0.35537   0.00000  Uiso   1.00
C30    C     0.00764   0.06899   0.38228   0.00000  Uiso   1.00
C31    C     0.00301   0.96235   0.35510   0.00000  Uiso   1.00
C32    C     0.98503   0.86139   0.38428   0.00000  Uiso   1.00
C33    C     0.97723   0.75608   0.35790   0.00000  Uiso   1.00
C34    C     0.98751   0.67751   0.39945   0.00000  Uiso   1.00
C35    C     0.99540   0.73671   0.44997   0.00000  Uiso   1.00
C36    C     0.01696   0.25866   0.49920   0.00000  Uiso   1.00
C37    C     0.01048   0.74391   0.55329   0.00000  Uiso   1.00
C38    C     0.02262   0.69323   0.60508   0.00000  Uiso   1.00
C39    C     0.00714   0.77636   0.64522   0.00000  Uiso   1.00
C40    C     0.98632   0.87536   0.61643   0.00000  Uiso   1.00
C41    C     0.09860   0.88301   0.18750   0.00000  Uiso   1.00
H17    H     0.17723   0.84416   0.32250   0.00000  Uiso   1.00
C42    C     0.99070   0.00148   0.24904   0.00000  Uiso   1.00
C43    C     0.02521   0.97262   0.19444   0.00000  Uiso   1.00
H18    H     0.12099   0.85457   0.14542   0.00000  Uiso   1.00
H19    H     0.92734   0.06554   0.25524   0.00000  Uiso   1.00
H20    H     0.20430   0.68636   0.20361   0.00000  Uiso   1.00
H21    H     0.27563   0.73263   0.26285   0.00000  Uiso   1.00
H22    H     0.30243   0.79077   0.19886   0.00000  Uiso   1.00
N9     N     0.24044   0.75651   0.22412   0.00000  Uiso   1.00
C44    C     0.04106   0.94906   0.29568   0.00000  Uiso   1.00
C45    C     0.13133   0.87758   0.28663   0.00000  Uiso   1.00
C46    C     0.15551   0.83942   0.23301   0.00000  Uiso   1.00
C47    C     0.85247   0.90077   0.80660   0.00000  Uiso   1.00
H23    H     0.78678   0.86088   0.66937   0.00000  Uiso   1.00
C48    C     0.96395   0.02133   0.74980   0.00000  Uiso   1.00
C49    C     0.92665   0.99029   0.80311   0.00000  Uiso   1.00
H24    H     0.82796   0.87050   0.84752   0.00000  Uiso   1.00
H25    H     0.02892   0.08420   0.74637   0.00000  Uiso   1.00
H26    H     0.75103   0.70305   0.78426   0.00000  Uiso   1.00
H27    H     0.68334   0.74926   0.72474   0.00000  Uiso   1.00
H28    H     0.65082   0.80575   0.78937   0.00000  Uiso   1.00
N10    N     0.71525   0.77297   0.76461   0.00000  Uiso   1.00
C50    C     0.91676   0.96998   0.70114   0.00000  Uiso   1.00
C51    C     0.82785   0.89599   0.70687   0.00000  Uiso   1.00
C52    C     0.79943   0.85741   0.75915   0.00000  Uiso   1.00
C53    C     0.57578   0.89717   0.00279   0.00000  Uiso   1.00
H29    H     0.29845   0.85205   0.98669   0.00000  Uiso   1.00
C54    C     0.47629   0.07304   0.00052   0.00000  Uiso   1.00
C55    C     0.57758   0.01366   0.00540   0.00000  Uiso   1.00
H30    H     0.65382   0.85083   0.00543   0.00000  Uiso   1.00
H31    H     0.47618   0.16426   0.00238   0.00000  Uiso   1.00
H32    H     0.52683   0.69250   0.95939   0.00000  Uiso   1.00
H33    H     0.39632   0.68797   0.98796   0.00000  Uiso   1.00
H34    H     0.51261   0.68915   0.03122   0.00000  Uiso   1.00
N11    N     0.47789   0.71876   0.99341   0.00000  Uiso   1.00
C56    C     0.37510   0.01388   0.99326   0.00000  Uiso   1.00
C57    C     0.37696   0.89731   0.99116   0.00000  Uiso   1.00
C58    C     0.47659   0.83907   0.99580   0.00000  Uiso   1.00
C59    C     0.18596   0.57277   0.50468   0.00000  Uiso   1.00
H35    H     0.23126   0.29278   0.50567   0.00000  Uiso   1.00
C60    C     0.01149   0.47206   0.50014   0.00000  Uiso   1.00
C61    C     0.07019   0.57382   0.50177   0.00000  Uiso   1.00
H36    H     0.23143   0.65175   0.50602   0.00000  Uiso   1.00
H37    H     0.92080   0.47180   0.49789   0.00000  Uiso   1.00
H38    H     0.39383   0.51528   0.47377   0.00000  Uiso   1.00
H39    H     0.39458   0.39180   0.50996   0.00000  Uiso   1.00
H40    H     0.38902   0.51772   0.54606   0.00000  Uiso   1.00
N12    N     0.36377   0.47420   0.50919   0.00000  Uiso   1.00
C62    C     0.07065   0.37061   0.50156   0.00000  Uiso   1.00
C63    C     0.18645   0.37209   0.50464   0.00000  Uiso   1.00
C64    C     0.24419   0.47273   0.50613   0.00000  Uiso   1.00
