# Generated by REPEAT Assigner based on pymatgen
data_DB15-qtz-x_N123_E173_opt
_audit_creation_date              2022-05-24
_audit_creation_method            REPEAT_Assigner
_cell_length_a                    10.159722
_cell_length_b                    10.151713
_cell_length_c                    30.404764
_cell_angle_alpha                 86.679211
_cell_angle_beta                  95.591983
_cell_angle_gamma                 60.335502
_cell_volume                      2691.431602
_symmetry_space_group_name_H-M    P1
_symmetry_Int_Tables_number       1
loop_
    _symmetry_equiv_pos_site_id
    _symmetry_equiv_pos_as_xyz
    1  x,y,z
loop_
    _atom_site_type_symbol
    _atom_site_label
    _atom_site_fract_x
    _atom_site_fract_y
    _atom_site_fract_z
    _atom_type_partial_charge
    Ce  Ce1  0.803255  0.205951  0.148604  2.103010
    Ce  Ce2  0.050790  0.422062  0.186294  2.206318
    C   C1   0.711299  0.571708  0.195230  0.599589
    C   C2   0.622695  0.175478  0.074113  0.392827
    C   C3   0.047883  0.116392  0.251299  0.699312
    C   C4   0.143109  0.049296  0.142578  0.907434
    C   C5   0.243941  0.393530  0.268133  0.580092
    C   C6   0.812151  0.510727  0.081711  0.875717
    O   O1   0.797008  0.620990  0.203741  -0.461264
    O   O2   0.764271  0.438128  0.178367  -0.686654
    O   O3   0.555306  0.270793  0.102694  -0.534489
    O   O4   0.769040  0.118329  0.073407  -0.557443
    O   O5   0.953363  0.099877  0.223005  -0.711627
    O   O6   0.085215  0.220025  0.242618  -0.653185
    O   O7   0.056459  0.000380  0.135464  -0.646451
    O   O8   0.089076  0.188837  0.156133  -0.853464
    O   O9   0.304356  0.329513  0.233410  -0.683912
    O   O10  0.095488  0.479535  0.265640  -0.566192
    O   O11  0.898210  0.534076  0.111589  -0.852476
    O   O12  0.778292  0.402621  0.089864  -0.624712
    Ce  Ce3  0.877541  0.856544  0.467314  1.856373
    Ce  Ce4  0.038810  0.395159  0.511766  1.856484
    C   C7   0.262968  0.505856  0.504897  0.885275
    C   C8   0.852164  0.024668  0.382546  0.470375
    C   C9   0.878447  0.709458  0.577125  0.757629
    C   C10  0.654065  0.742321  0.471842  0.885260
    C   C11  0.064711  0.220123  0.594962  0.484933
    C   C12  0.028303  0.541472  0.401375  0.568495
    O   O13  0.293887  0.376729  0.518245  -0.658525
    O   O14  0.116528  0.618298  0.494130  -0.767786
    O   O15  0.969158  0.979809  0.413803  -0.701874
    O   O16  0.740220  0.000802  0.389707  -0.608540
    O   O17  0.836395  0.822668  0.545608  -0.800045
    O   O18  0.955237  0.566771  0.569514  -0.635872
    O   O19  0.622371  0.872590  0.459545  -0.578683
    O   O20  0.800383  0.632573  0.484709  -0.805838
    O   O21  0.944232  0.274061  0.564494  -0.749788
    O   O22  0.179465  0.240267  0.588108  -0.569705
    O   O23  0.071336  0.431983  0.433874  -0.669276
    O   O24  0.958904  0.685019  0.408657  -0.563143
    Ce  Ce5  0.454029  0.686549  0.828092  1.799968
    Ce  Ce6  0.931342  0.494435  0.854702  1.865714
    C   C13  0.724193  0.833562  0.854099  0.826997
    C   C14  0.200496  0.879694  0.757105  0.562693
    C   C15  0.685562  0.476221  0.930862  0.710514
    C   C16  0.663088  0.357113  0.813643  0.714112
    C   C17  0.154367  0.346987  0.935192  0.602001
    C   C18  0.698500  0.699509  0.750502  0.766146
    O   O25  0.863198  0.762310  0.862249  -0.691715
    O   O26  0.646405  0.759474  0.846962  -0.798510
    O   O27  0.243648  0.934666  0.789378  -0.717709
    O   O28  0.272815  0.731556  0.755578  -0.660526
    O   O29  0.557796  0.540003  0.903054  -0.761820
    O   O30  0.810522  0.464602  0.918471  -0.581374
    O   O31  0.523376  0.425734  0.809090  -0.566495
    O   O32  0.740386  0.424312  0.829387  -0.831033
    O   O33  0.139895  0.265314  0.905028  -0.714881
    O   O34  0.071045  0.495822  0.929107  -0.591367
    O   O35  0.829522  0.626927  0.777332  -0.704055
    O   O36  0.569781  0.725544  0.764248  -0.591872
    H   H1   0.177235  0.856869  0.078157  0.123557
    H   H2   0.175879  0.618880  0.077929  0.107062
    H   H3   0.330434  0.409897  0.138197  0.049099
    H   H4   0.511606  0.428628  0.192962  0.064853
    H   H5   0.544081  0.599587  0.236390  0.094692
    H   H6   0.525898  0.772360  0.213164  0.132679
    H   H7   0.377390  0.958282  0.167723  0.083340
    H   H8   0.335253  0.986171  0.108491  -0.000543
    C   C19  0.440772  0.659292  0.168897  0.106440
    C   C20  0.339347  0.785412  0.137562  0.074453
    C   C21  0.253643  0.763672  0.103411  -0.074160
    C   C22  0.251137  0.629523  0.103322  -0.107340
    C   C23  0.339083  0.511931  0.136632  -0.136131
    C   C24  0.438344  0.524440  0.167870  -0.150279
    C   C25  0.550865  0.658387  0.205522  -0.247343
    C   C26  0.309315  0.946591  0.139452  -0.253586
    H   H9   0.280520  0.604147  0.576677  0.153781
    H   H10  0.299160  0.778596  0.623960  0.201538
    H   H11  0.411820  0.933096  0.600434  0.111143
    H   H12  0.515338  0.902947  0.530638  0.193225
    H   H13  0.444013  0.761221  0.442108  0.177650
    H   H14  0.592281  0.576556  0.469071  0.071424
    H   H15  0.365680  0.579718  0.461419  0.098150
    H   H16  0.498982  0.428422  0.504768  0.077722
    C   C27  0.459583  0.731735  0.512990  0.241525
    C   C28  0.388333  0.651852  0.525259  0.016054
    C   C29  0.329695  0.670490  0.565111  -0.241429
    C   C30  0.340156  0.769655  0.592211  -0.258809
    C   C31  0.404737  0.854354  0.579202  0.060172
    C   C32  0.463828  0.836244  0.539619  -0.453688
    C   C33  0.532875  0.700822  0.471495  -0.444572
    C   C34  0.387346  0.536421  0.497210  -0.267964
    H   H17  0.609956  0.284724  0.718133  0.061600
    H   H18  0.424629  0.227416  0.679614  0.131138
    H   H19  0.343898  0.069259  0.720118  0.095231
    H   H20  0.445109  0.976335  0.799159  0.177958
    H   H21  0.546943  0.043689  0.869713  0.037639
    H   H22  0.730550  0.028544  0.865358  0.175051
    H   H23  0.833017  0.117723  0.827525  0.059072
    H   H24  0.810530  0.206903  0.773376  0.094589
    C   C35  0.588509  0.070135  0.802974  -0.077888
    C   C36  0.635385  0.159010  0.780093  0.117565
    C   C37  0.574497  0.215515  0.735985  -0.058875
    C   C38  0.469991  0.183977  0.714291  -0.304907
    C   C39  0.423690  0.096958  0.736973  0.108944
    C   C40  0.482060  0.042223  0.781034  -0.143290
    C   C41  0.644827  0.002541  0.850652  -0.229099
    C   C42  0.747205  0.201148  0.800122  -0.199188
    H   H25  0.485869  0.858485  0.054323  0.230916
    H   H26  0.226740  0.950884  0.017156  0.070653
    H   H27  0.173776  0.789513  0.969872  0.140855
    H   H28  0.384494  0.545957  0.955200  0.061687
    H   H29  0.651090  0.344243  0.981187  0.213614
    H   H30  0.795755  0.387128  0.998384  0.052102
    H   H31  0.823030  0.574660  0.013727  0.118703
    H   H32  0.743680  0.724700  0.046727  0.152726
    C   C43  0.557866  0.569124  0.994064  0.097194
    C   C44  0.587219  0.655383  0.022767  0.173796
    C   C45  0.466128  0.789976  0.031985  -0.410437
    C   C46  0.319122  0.840940  0.011756  0.116238
    C   C47  0.289620  0.751639  0.984914  -0.300588
    C   C48  0.408645  0.615017  0.976625  -0.039866
    C   C49  0.682161  0.433092  0.978255  -0.279968
    C   C50  0.746755  0.617629  0.039442  -0.385065
    H   H33  0.172764  0.773586  0.245353  0.044436
    H   H34  0.979143  0.716610  0.215259  -0.082877
    H   H35  0.728087  0.833137  0.243247  0.087204
    H   H36  0.678794  0.001110  0.299190  0.105239
    H   H37  0.729261  0.193508  0.326628  -0.106222
    H   H38  0.918226  0.153966  0.342762  -0.020327
    H   H39  0.127067  0.052466  0.320807  0.059104
    H   H40  0.245153  0.920509  0.286088  0.048574
    C   C51  0.896058  0.984527  0.306042  0.070425
    C   C52  0.036660  0.920455  0.290375  -0.179427
    C   C53  0.068406  0.816121  0.259963  0.048393
    C   C54  0.958586  0.784402  0.242592  0.064679
    C   C55  0.819015  0.850070  0.257504  -0.196411
    C   C56  0.790409  0.945997  0.289627  -0.169270
    C   C57  0.847846  0.100020  0.338543  0.276749
    C   C58  0.125174  0.000450  0.290625  -0.051468
    H   H41  0.071823  0.400217  0.644775  0.143591
    H   H42  0.081539  0.510593  0.711827  0.074539
    H   H43  0.072160  0.393313  0.783456  -0.028037
    H   H44  0.039684  0.174792  0.787032  0.118141
    H   H45  0.079445  0.934800  0.691990  -0.014462
    H   H46  0.961335  0.004002  0.734573  -0.028138
    H   H47  0.180493  0.018922  0.640664  -0.006414
    H   H48  0.973186  0.111558  0.631896  0.012507
    C   C59  0.060548  0.141017  0.717922  -0.073997
    C   C60  0.066353  0.207106  0.677158  0.027980
    C   C61  0.068841  0.343132  0.675255  -0.280895
    C   C62  0.072838  0.408601  0.713336  0.119727
    C   C63  0.065454  0.344636  0.753264  -0.131958
    C   C64  0.051923  0.216558  0.755160  -0.101924
    C   C65  0.067847  0.988172  0.723077  0.157282
    C   C66  0.072468  0.129734  0.636325  0.134088
    H   H49  0.797078  0.989624  0.009134  0.155476
    H   H50  0.833485  0.065530  0.935864  0.105750
    H   H51  0.611002  0.264499  0.884461  0.205196
    H   H52  0.355401  0.353897  0.899716  -0.075821
    H   H53  0.237628  0.357419  0.000432  0.066591
    H   H54  0.267672  0.171372  0.989394  0.020515
    H   H55  0.418865  0.173989  0.052503  0.056769
    H   H56  0.594482  0.994779  0.056163  -0.026591
    C   C67  0.426808  0.229658  0.966007  -0.193825
    C   C68  0.553497  0.141296  0.998095  0.121948
    C   C69  0.698415  0.071992  0.985951  -0.203751
    C   C70  0.719228  0.112568  0.944467  -0.149821
    C   C71  0.594964  0.223212  0.915588  -0.296690
    C   C72  0.448975  0.275089  0.924927  0.317632
    C   C73  0.269643  0.274068  0.975818  -0.020866
    C   C74  0.538468  0.118638  0.045783  0.027924
    H   H57  0.011505  0.278027  0.390405  0.040164
    H   H58  0.202440  0.008672  0.412149  0.149802
    H   H59  0.452248  0.900820  0.385005  0.015503
    H   H60  0.509409  0.061740  0.339914  0.207612
    H   H61  0.462987  0.286926  0.306175  0.169862
    H   H62  0.330739  0.462438  0.324520  0.045369
    H   H63  0.101410  0.566749  0.340380  0.105508
    H   H64  0.944556  0.530401  0.335477  0.084154
    C   C75  0.302904  0.268449  0.343118  0.149660
    C   C76  0.162535  0.330742  0.358771  -0.009684
    C   C77  0.123975  0.233499  0.380613  0.009588
    C   C78  0.230957  0.081728  0.393101  -0.280733
    C   C79  0.370433  0.021432  0.378440  0.100080
    C   C80  0.403627  0.113655  0.352825  -0.334021
    C   C81  0.342485  0.357983  0.311574  -0.244344
    C   C82  0.055147  0.499852  0.355535  -0.065538
    H   H65  0.723782  0.585309  0.563657  0.147447
    H   H66  0.611069  0.437118  0.582051  0.180764
    H   H67  0.518581  0.443273  0.653289  0.155459
    H   H68  0.559465  0.582100  0.709162  0.200117
    H   H69  0.604472  0.876711  0.695554  0.074197
    H   H70  0.808075  0.753200  0.704218  0.091342
    H   H71  0.746260  0.865064  0.620887  0.095580
    H   H72  0.921874  0.694782  0.646199  0.065205
    C   C83  0.680062  0.661769  0.670402  0.122111
    C   C84  0.730833  0.660593  0.629323  0.063178
    C   C85  0.699220  0.583411  0.597184  0.162926
    C   C86  0.628949  0.501476  0.606657  -0.231412
    C   C87  0.579649  0.502637  0.646955  -0.146656
    C   C88  0.603578  0.582978  0.678525  -0.301823
    C   C89  0.697770  0.756621  0.704162  -0.313016
    C   C90  0.819883  0.740257  0.620490  -0.225452
