# Generated by REPEAT Assigner based on pymatgen
data_DB15-qtz_N76_E123_opt
_audit_creation_date              2022-05-24
_audit_creation_method            REPEAT_Assigner
_cell_length_a                    23.671736
_cell_length_b                    23.524250
_cell_length_c                    26.271934
_cell_angle_alpha                 101.706568
_cell_angle_beta                  96.198871
_cell_angle_gamma                 60.718961
_cell_volume                      12494.474614
_symmetry_space_group_name_H-M    P1
_symmetry_Int_Tables_number       1
loop_
    _symmetry_equiv_pos_site_id
    _symmetry_equiv_pos_as_xyz
    1  x,y,z
loop_
    _atom_site_type_symbol
    _atom_site_label
    _atom_site_fract_x
    _atom_site_fract_y
    _atom_site_fract_z
    _atom_type_partial_charge
    C   C1   0.509369  0.628170  0.261201  0.875052
    C   C2   0.625711  0.536361  0.127505  0.893440
    C   C3   0.487959  0.463605  0.221512  0.175751
    C   C4   0.489703  0.409613  0.236760  -0.394200
    C   C5   0.547955  0.353221  0.240503  0.574916
    C   C6   0.603729  0.353464  0.229844  -0.406937
    C   C7   0.600309  0.408271  0.214813  0.230627
    C   C8   0.465464  0.486040  0.096068  0.238898
    C   C9   0.411770  0.481404  0.073244  -0.389793
    C   C10  0.351171  0.536751  0.076032  0.544422
    C   C11  0.347612  0.596601  0.099412  -0.453848
    C   C12  0.402246  0.599630  0.121932  0.356972
    N   N1   0.542750  0.461993  0.209233  -0.380800
    N   N2   0.460025  0.544212  0.122140  -0.528167
    O   O1   0.464745  0.626412  0.227783  -0.721640
    O   O2   0.570056  0.585509  0.250572  -0.660230
    O   O3   0.574059  0.594649  0.137760  -0.698164
    O   O4   0.623879  0.484723  0.137178  -0.715832
    Zn  Zn1  0.534931  0.542603  0.177877  1.117428
    H   H1   0.441657  0.506335  0.217001  0.102757
    H   H2   0.444880  0.410265  0.242641  0.165012
    H   H3   0.650297  0.309712  0.230610  0.146133
    H   H4   0.644441  0.406524  0.205244  0.106204
    H   H5   0.510908  0.441157  0.097300  0.072666
    H   H6   0.416856  0.432988  0.057448  0.135135
    H   H7   0.300839  0.640505  0.104739  0.181215
    H   H8   0.396703  0.646328  0.143426  0.068954
    C   C13  0.550864  0.906419  0.420260  0.880065
    C   C14  0.600363  0.938998  0.582716  0.861063
    C   C15  0.492695  0.106644  0.450032  0.151826
    C   C16  0.491232  0.160222  0.434408  -0.379094
    C   C17  0.545955  0.167812  0.438973  0.551121
    C   C18  0.601336  0.120069  0.459014  -0.356670
    C   C19  0.600968  0.067460  0.474902  0.204962
    C   C20  0.440495  0.116813  0.567555  0.225972
    C   C21  0.380392  0.168919  0.583959  -0.378038
    C   C22  0.325477  0.162409  0.571828  0.471666
    C   C23  0.333113  0.101850  0.545798  -0.314205
    C   C24  0.393806  0.050852  0.529669  0.219536
    N   N3   0.546515  0.061925  0.471567  -0.343201
    N   N4   0.446475  0.059522  0.538910  -0.402026
    O   O5   0.493953  0.951171  0.439382  -0.718107
    O   O6   0.602690  0.902094  0.446463  -0.705651
    O   O7   0.563418  0.915176  0.557455  -0.646678
    O   O8   0.604425  0.985361  0.565379  -0.741576
    Zn  Zn2  0.537997  0.989703  0.503186  1.088083
    H   H9   0.448793  0.102768  0.447432  0.097687
    H   H10  0.445791  0.197881  0.421606  0.143287
    H   H11  0.644223  0.125925  0.465361  0.159270
    H   H12  0.644145  0.032191  0.492392  0.105489
    H   H13  0.482582  0.124019  0.574668  0.073005
    H   H14  0.376259  0.216234  0.602449  0.136299
    H   H15  0.290806  0.096011  0.533990  0.145572
    H   H16  0.398055  0.005309  0.506731  0.102647
    C   C25  0.089373  0.551027  0.878044  0.943953
    C   C26  0.057400  0.421284  0.757256  0.922750
    C   C27  0.889379  0.597698  0.901600  0.259024
    C   C28  0.833792  0.608835  0.924562  -0.400728
    C   C29  0.825258  0.556389  0.930664  0.543378
    C   C30  0.876078  0.493466  0.916565  -0.445003
    C   C31  0.931158  0.484040  0.893833  0.325644
    C   C32  0.876488  0.587212  0.768684  0.039484
    C   C33  0.835773  0.619546  0.729945  -0.269872
    C   C34  0.853023  0.651936  0.701465  0.474784
    C   C35  0.911226  0.652045  0.714012  -0.375602
    C   C36  0.950690  0.619615  0.753178  0.198181
    N   N5   0.936377  0.535697  0.884331  -0.535285
    N   N6   0.933966  0.586351  0.779388  -0.291609
    O   O9   0.035132  0.594843  0.859488  -0.725755
    O   O10  0.097057  0.491626  0.876866  -0.707399
    O   O11  0.074534  0.467115  0.760445  -0.686305
    O   O12  0.017404  0.428575  0.791886  -0.674338
    Zn  Zn3  0.004800  0.522659  0.829239  1.087030
    H   H17  0.892176  0.639397  0.893268  0.068372
    H   H18  0.794818  0.659031  0.933380  0.136114
    H   H19  0.870574  0.450992  0.918583  0.177465
    H   H20  0.967706  0.434128  0.879454  0.082133
    H   H21  0.863640  0.558935  0.788200  0.121599
    H   H22  0.792521  0.615085  0.719362  0.144967
    H   H23  0.928591  0.673498  0.691039  0.137773
    H   H24  0.997469  0.617438  0.760317  0.111568
    C   C37  0.747629  0.554519  0.983371  0.366316
    N   N7   0.760806  0.566028  0.935312  -0.639944
    C   C38  0.710827  0.595960  0.071831  -0.137010
    C   C39  0.735295  0.601072  0.028207  -0.325951
    C   C40  0.708917  0.498627  0.026379  -0.226637
    C   C41  0.733098  0.504000  0.982696  -0.192520
    H   H25  0.727157  0.614491  0.931202  0.316822
    H   H26  0.743789  0.642453  0.029201  0.152134
    C   C42  0.696992  0.544852  0.071449  0.274972
    H   H27  0.704055  0.631891  0.106809  0.118194
    H   H28  0.740219  0.468454  0.947411  0.129013
    H   H29  0.701169  0.456817  0.025559  0.158048
    H   H30  0.694976  0.562735  0.150418  0.327965
    N   N8   0.687773  0.530802  0.119865  -0.617774
    C   C43  0.545278  0.281770  0.292757  0.374467
    N   N9   0.548912  0.291859  0.241405  -0.704303
    C   C44  0.491961  0.258005  0.352084  -0.335052
    C   C45  0.492593  0.277576  0.305922  -0.126886
    C   C46  0.597597  0.245023  0.372260  -0.123010
    C   C47  0.598094  0.264924  0.326175  -0.342576
    H   H31  0.591928  0.252795  0.224814  0.340772
    H   H32  0.451583  0.289136  0.279583  0.129040
    C   C48  0.545003  0.240512  0.385386  0.380554
    H   H33  0.449038  0.257842  0.362156  0.170994
    H   H34  0.640566  0.266049  0.316078  0.168124
    H   H35  0.638526  0.233688  0.398667  0.134828
    H   H36  0.497767  0.268312  0.453409  0.335426
    N   N10  0.541474  0.230528  0.436880  -0.726528
    C   C49  0.677027  0.857603  0.633006  0.411896
    N   N11  0.625997  0.924450  0.633436  -0.667789
    C   C50  0.787557  0.782980  0.654475  -0.303259
    C   C51  0.740033  0.845128  0.645788  -0.226978
    C   C52  0.709869  0.744887  0.639019  -0.195463
    C   C53  0.662328  0.806959  0.630304  -0.231876
    H   H37  0.644786  0.956326  0.648905  0.316824
    H   H38  0.752845  0.884049  0.649514  0.129208
    C   C54  0.772703  0.732418  0.651705  0.348036
    H   H39  0.836683  0.774062  0.662483  0.163580
    H   H40  0.613119  0.816054  0.622344  0.166569
    H   H41  0.697881  0.705379  0.635190  0.136164
    H   H42  0.858290  0.654547  0.625367  0.335385
    N   N12  0.822827  0.665352  0.651606  -0.670462
    C   C55  0.177831  0.549878  0.935791  0.307799
    N   N13  0.143388  0.564112  0.887446  -0.680870
    C   C56  0.280797  0.493579  0.979359  -0.360526
    C   C57  0.241266  0.498850  0.935501  -0.116297
    C   C58  0.194921  0.590777  0.024603  -0.190905
    C   C59  0.155365  0.596101  0.980793  -0.234589
    H   H43  0.175903  0.535114  0.857170  0.335227
    H   H44  0.261182  0.462975  0.900517  0.108770
    C   C60  0.258263  0.540142  0.024166  0.388075
    H   H45  0.329244  0.452180  0.978493  0.164375
    H   H46  0.107172  0.637881  0.981426  0.159861
    H   H47  0.175796  0.626412  0.059820  0.125928
    H   H48  0.307059  0.481528  0.077656  0.319738
    N   N14  0.293850  0.529282  0.072361  -0.666568
    C   C61  0.536403  0.823561  0.357804  0.494309
    N   N15  0.557382  0.872651  0.367341  -0.733159
    C   C62  0.479035  0.774003  0.301312  -0.326983
    C   C63  0.491829  0.826362  0.318329  -0.215658
    C   C64  0.555181  0.714951  0.363287  -0.197208
    C   C65  0.568518  0.767080  0.379934  -0.344327
    H   H49  0.606513  0.848371  0.358303  0.323166
    H   H50  0.467879  0.869355  0.299570  0.137911
    C   C66  0.511103  0.717545  0.323385  0.474516
    H   H51  0.443041  0.777965  0.271156  0.170081
    H   H52  0.605065  0.762771  0.409651  0.176964
    H   H53  0.579291  0.671828  0.381888  0.143961
    H   H54  0.440642  0.691613  0.314151  0.317058
    N   N16  0.491090  0.667681  0.312070  -0.737281
    C   C67  0.135199  0.333743  0.693815  0.486864
    N   N17  0.069288  0.372179  0.711225  -0.804803
    C   C68  0.212126  0.321906  0.634275  -0.225090
    C   C69  0.162362  0.361416  0.669489  -0.284878
    C   C70  0.211983  0.225913  0.649800  -0.289825
    C   C71  0.163181  0.265396  0.685899  -0.212135
    H   H55  0.041636  0.396748  0.681156  0.338084
    H   H56  0.140129  0.414531  0.672967  0.155837
    C   C72  0.234546  0.254187  0.621604  0.321338
    H   H57  0.227457  0.345930  0.612146  0.125115
    H   H58  0.140995  0.242975  0.702822  0.146209
    H   H59  0.226760  0.173723  0.639507  0.169933
    H   H60  0.267531  0.252257  0.552495  0.288181
    N   N18  0.263019  0.219797  0.571465  -0.580110
