data_DB15-msw_N144_E81_opt_repeat
_audit_creation_date              2024-02-23
_audit_creation_method            'Materials Studio'
_symmetry_space_group_name_H-M    'P1'
_symmetry_Int_Tables_number       1
_symmetry_cell_setting            triclinic
loop_
_symmetry_equiv_pos_as_xyz
  x,y,z
_cell_length_a                    18.7409
_cell_length_b                    18.8442
_cell_length_c                    11.6688
_cell_angle_alpha                 90.1549
_cell_angle_beta                  93.0420
_cell_angle_gamma                 89.9920
loop_
_atom_site_label
_atom_site_type_symbol
_atom_site_fract_x
_atom_site_fract_y
_atom_site_fract_z
_atom_site_U_iso_or_equiv
_atom_site_adp_type
_atom_site_occupancy
C1     C     0.88304   0.07292   0.06955   0.00000  Uiso   1.00
Er1    Er    0.67328   0.34193   0.34774   0.00000  Uiso   1.00
Er2    Er    0.80838   0.15804   0.28851   0.00000  Uiso   1.00
C2     C     0.85898   0.32477   0.38060   0.00000  Uiso   1.00
O1     O     0.78311   0.22968   0.13232   0.00000  Uiso   1.00
C3     C     0.72354   0.20396   0.52742   0.00000  Uiso   1.00
C4     C     0.61897   0.18041   0.27207   0.00000  Uiso   1.00
C5     C     0.61947   0.46392   0.22282   0.00000  Uiso   1.00
O2     O     0.93166   0.11597   0.07418   0.00000  Uiso   1.00
O3     O     0.82834   0.08224   0.13946   0.00000  Uiso   1.00
O4     O     0.68681   0.16169   0.27582   0.00000  Uiso   1.00
O5     O     0.60054   0.24735   0.28951   0.00000  Uiso   1.00
O6     O     0.76482   0.16661   0.46342   0.00000  Uiso   1.00
O7     O     0.69239   0.26269   0.49187   0.00000  Uiso   1.00
C6     C     0.74734   0.28697   0.10162   0.00000  Uiso   1.00
O8     O     0.71047   0.32158   0.17421   0.00000  Uiso   1.00
O9     O     0.86703   0.25820   0.35115   0.00000  Uiso   1.00
O10    O     0.79476   0.35339   0.37742   0.00000  Uiso   1.00
O11    O     0.58296   0.40484   0.21232   0.00000  Uiso   1.00
O12    O     0.67634   0.46481   0.29339   0.00000  Uiso   1.00
C7     C     0.43020   0.92119   0.61794   0.00000  Uiso   1.00
Er3    Er    0.18894   0.65214   0.86051   0.00000  Uiso   1.00
Er4    Er    0.29006   0.85189   0.77162   0.00000  Uiso   1.00
C8     C     0.11144   0.81575   0.79218   0.00000  Uiso   1.00
O13    O     0.26566   0.77470   0.62510   0.00000  Uiso   1.00
C9     C     0.25148   0.79021   0.03344   0.00000  Uiso   1.00
C10    C     0.36165   0.68225   0.86346   0.00000  Uiso   1.00
C11    C     0.13202   0.53596   0.72753   0.00000  Uiso   1.00
O14    O     0.47429   0.93003   0.69731   0.00000  Uiso   1.00
O15    O     0.36873   0.88592   0.63608   0.00000  Uiso   1.00
O16    O     0.34510   0.74783   0.83020   0.00000  Uiso   1.00
O17    O     0.31084   0.63506   0.87857   0.00000  Uiso   1.00
O18    O     0.27603   0.83310   0.95729   0.00000  Uiso   1.00
O19    O     0.22228   0.72872   0.00538   0.00000  Uiso   1.00
C12    C     0.24438   0.71000   0.60328   0.00000  Uiso   1.00
O20    O     0.22149   0.66900   0.68232   0.00000  Uiso   1.00
O21    O     0.16697   0.85699   0.77798   0.00000  Uiso   1.00
O22    O     0.12076   0.74862   0.81777   0.00000  Uiso   1.00
O23    O     0.19964   0.53366   0.76242   0.00000  Uiso   1.00
O24    O     0.09205   0.58679   0.76629   0.00000  Uiso   1.00
C13    C     0.72031   0.29140   0.98455   0.00000  Uiso   1.00
C14    C     0.65188   0.31793   0.96518   0.00000  Uiso   1.00
C15    C     0.60861   0.29081   0.87792   0.00000  Uiso   1.00
C16    C     0.63593   0.24217   0.80489   0.00000  Uiso   1.00
C17    C     0.70751   0.22494   0.81393   0.00000  Uiso   1.00
C18    C     0.74963   0.24810   0.90550   0.00000  Uiso   1.00
C19    C     0.73782   0.18811   0.72804   0.00000  Uiso   1.00
C20    C     0.69681   0.17550   0.63003   0.00000  Uiso   1.00
C21    C     0.62336   0.17874   0.63176   0.00000  Uiso   1.00
C22    C     0.59249   0.21352   0.71907   0.00000  Uiso   1.00
H1     H     0.62782   0.35342   0.02450   0.00000  Uiso   1.00
H2     H     0.55331   0.30710   0.86821   0.00000  Uiso   1.00
H3     H     0.80379   0.22882   0.91849   0.00000  Uiso   1.00
H4     H     0.79539   0.18565   0.72641   0.00000  Uiso   1.00
H5     H     0.59095   0.16985   0.55397   0.00000  Uiso   1.00
H6     H     0.53600   0.22545   0.71246   0.00000  Uiso   1.00
C23    C     0.26956   0.67997   0.50090   0.00000  Uiso   1.00
C24    C     0.34179   0.66529   0.50460   0.00000  Uiso   1.00
C25    C     0.38270   0.68875   0.41816   0.00000  Uiso   1.00
C26    C     0.35026   0.72626   0.32909   0.00000  Uiso   1.00
C27    C     0.27690   0.73126   0.31993   0.00000  Uiso   1.00
C28    C     0.23627   0.70502   0.40310   0.00000  Uiso   1.00
C29    C     0.24332   0.76496   0.22957   0.00000  Uiso   1.00
C30    C     0.28290   0.79355   0.14710   0.00000  Uiso   1.00
C31    C     0.35659   0.79466   0.15971   0.00000  Uiso   1.00
C32    C     0.39056   0.76003   0.25061   0.00000  Uiso   1.00
H7     H     0.36828   0.64730   0.58379   0.00000  Uiso   1.00
H8     H     0.44021   0.68369   0.42625   0.00000  Uiso   1.00
H9     H     0.18013   0.71830   0.40254   0.00000  Uiso   1.00
H10    H     0.18576   0.76291   0.21735   0.00000  Uiso   1.00
H11    H     0.38808   0.81423   0.09156   0.00000  Uiso   1.00
H12    H     0.44824   0.75701   0.25721   0.00000  Uiso   1.00
C33    C     0.43543   0.66575   0.90761   0.00000  Uiso   1.00
C34    C     0.48859   0.71578   0.89768   0.00000  Uiso   1.00
C35    C     0.55494   0.70589   0.95207   0.00000  Uiso   1.00
C36    C     0.56914   0.64634   0.01808   0.00000  Uiso   1.00
C37    C     0.51779   0.59449   0.02681   0.00000  Uiso   1.00
C38    C     0.45085   0.60415   0.97081   0.00000  Uiso   1.00
C39    C     0.53343   0.53433   0.09341   0.00000  Uiso   1.00
C40    C     0.59959   0.52747   0.15330   0.00000  Uiso   1.00
C41    C     0.64947   0.58095   0.14458   0.00000  Uiso   1.00
C42    C     0.63464   0.63937   0.07663   0.00000  Uiso   1.00
H13    H     0.47838   0.76409   0.84990   0.00000  Uiso   1.00
H14    H     0.59540   0.74630   0.94504   0.00000  Uiso   1.00
H15    H     0.40991   0.56460   0.98071   0.00000  Uiso   1.00
H16    H     0.49357   0.49328   0.09973   0.00000  Uiso   1.00
H17    H     0.70142   0.57705   0.18890   0.00000  Uiso   1.00
H18    H     0.67479   0.68014   0.07023   0.00000  Uiso   1.00
C43    C     0.92556   0.36578   0.39748   0.00000  Uiso   1.00
C44    C     0.97792   0.34900   0.32324   0.00000  Uiso   1.00
C45    C     0.04691   0.37095   0.34455   0.00000  Uiso   1.00
C46    C     0.06510   0.40963   0.44150   0.00000  Uiso   1.00
C47    C     0.01342   0.43089   0.51474   0.00000  Uiso   1.00
C48    C     0.94267   0.40894   0.49232   0.00000  Uiso   1.00
C49    C     0.03396   0.47211   0.61064   0.00000  Uiso   1.00
C50    C     0.10599   0.48815   0.63434   0.00000  Uiso   1.00
C51    C     0.15630   0.46326   0.56194   0.00000  Uiso   1.00
C52    C     0.13585   0.42557   0.46529   0.00000  Uiso   1.00
H19    H     0.96564   0.31586   0.24904   0.00000  Uiso   1.00
H20    H     0.08731   0.35514   0.28685   0.00000  Uiso   1.00
H21    H     0.90239   0.42136   0.55226   0.00000  Uiso   1.00
H22    H     0.99417   0.49095   0.66720   0.00000  Uiso   1.00
H23    H     0.21225   0.47590   0.57687   0.00000  Uiso   1.00
H24    H     0.17600   0.40820   0.40822   0.00000  Uiso   1.00
C53    C     0.03952   0.84566   0.80327   0.00000  Uiso   1.00
C54    C     0.98069   0.80281   0.77986   0.00000  Uiso   1.00
C55    C     0.91370   0.82407   0.80976   0.00000  Uiso   1.00
C56    C     0.90522   0.88707   0.86802   0.00000  Uiso   1.00
C57    C     0.96327   0.93077   0.89052   0.00000  Uiso   1.00
C58    C     0.03023   0.91087   0.85581   0.00000  Uiso   1.00
C59    C     0.95493   0.99249   0.95309   0.00000  Uiso   1.00
C60    C     0.88936   0.00945   0.99649   0.00000  Uiso   1.00
C61    C     0.83155   0.96546   0.97294   0.00000  Uiso   1.00
C62    C     0.83930   0.90505   0.90748   0.00000  Uiso   1.00
H25    H     0.98700   0.75138   0.74039   0.00000  Uiso   1.00
H26    H     0.86851   0.78933   0.79233   0.00000  Uiso   1.00
H27    H     0.07619   0.94368   0.87833   0.00000  Uiso   1.00
H28    H     0.00100   0.02582   0.97196   0.00000  Uiso   1.00
H29    H     0.78006   0.97788   0.00546   0.00000  Uiso   1.00
H30    H     0.79379   0.87068   0.89024   0.00000  Uiso   1.00
C63    C     0.43976   0.95634   0.50576   0.00000  Uiso   1.00
C64    C     0.38418   0.95565   0.42286   0.00000  Uiso   1.00
C65    C     0.38799   0.99555   0.32432   0.00000  Uiso   1.00
C66    C     0.44720   0.03695   0.30701   0.00000  Uiso   1.00
C67    C     0.50491   0.03524   0.38522   0.00000  Uiso   1.00
C68    C     0.50125   0.99485   0.48474   0.00000  Uiso   1.00
C69    C     0.56433   0.07706   0.36629   0.00000  Uiso   1.00
C70    C     0.56319   0.12530   0.27607   0.00000  Uiso   1.00
C71    C     0.50407   0.12781   0.20068   0.00000  Uiso   1.00
C72    C     0.44756   0.08199   0.21365   0.00000  Uiso   1.00
H31    H     0.33585   0.92619   0.43600   0.00000  Uiso   1.00
H32    H     0.34287   0.99628   0.26266   0.00000  Uiso   1.00
H33    H     0.54545   0.99604   0.54809   0.00000  Uiso   1.00
H34    H     0.60988   0.07581   0.42695   0.00000  Uiso   1.00
H35    H     0.50178   0.16587   0.13143   0.00000  Uiso   1.00
H36    H     0.40179   0.08423   0.15335   0.00000  Uiso   1.00
