data_DB15-cds_N128_E165_opt_repeat
_audit_creation_date              2024-02-20
_audit_creation_method            'Materials Studio'
_symmetry_space_group_name_H-M    'P1'
_symmetry_Int_Tables_number       1
_symmetry_cell_setting            triclinic
loop_
_symmetry_equiv_pos_as_xyz
  x,y,z
_cell_length_a                    11.9967
_cell_length_b                    11.8524
_cell_length_c                    23.8791
_cell_angle_alpha                 90.9875
_cell_angle_beta                  90.9840
_cell_angle_gamma                 89.9880
loop_
_atom_site_label
_atom_site_type_symbol
_atom_site_fract_x
_atom_site_fract_y
_atom_site_fract_z
_atom_site_U_iso_or_equiv
_atom_site_adp_type
_atom_site_occupancy
C1     C     0.69793   0.97625   0.99935   0.00000  Uiso   1.00
C2     C     0.75181   0.04364   0.95919   0.00000  Uiso   1.00
C3     C     0.70015   0.10975   0.91901   0.00000  Uiso   1.00
C4     C     0.78123   0.14145   0.88227   0.00000  Uiso   1.00
C5     C     0.88005   0.09644   0.90207   0.00000  Uiso   1.00
C6     C     0.98868   0.97235   0.14463   0.00000  Uiso   1.00
H1     H     0.18923   0.17464   0.84262   0.00000  Uiso   1.00
H2     H     0.34769   0.11320   0.91347   0.00000  Uiso   1.00
H3     H     0.34943   0.89928   0.10801   0.00000  Uiso   1.00
H4     H     0.19584   0.86335   0.17920   0.00000  Uiso   1.00
N1     N     0.09781   0.03486   0.94963   0.00000  Uiso   1.00
N2     N     0.09919   0.95246   0.05894   0.00000  Uiso   1.00
N3     N     0.86453   0.96667   0.06170   0.00000  Uiso   1.00
N4     N     0.86335   0.04587   0.95145   0.00000  Uiso   1.00
H5     H     0.76290   0.94171   0.18734   0.00000  Uiso   1.00
H6     H     0.61127   0.95044   0.11029   0.00000  Uiso   1.00
H7     H     0.61275   0.13091   0.91537   0.00000  Uiso   1.00
H8     H     0.76821   0.18547   0.84342   0.00000  Uiso   1.00
Pd1    Pd    0.98105   0.99594   0.00391   0.00000  Uiso   1.00
C7     C     0.07885   0.08867   0.90107   0.00000  Uiso   1.00
C8     C     0.17775   0.12917   0.88095   0.00000  Uiso   1.00
C9     C     0.26038   0.09344   0.91735   0.00000  Uiso   1.00
C10    C     0.20973   0.02747   0.95723   0.00000  Uiso   1.00
C11    C     0.26389   0.95544   0.99671   0.00000  Uiso   1.00
C12    C     0.20918   0.93412   0.04838   0.00000  Uiso   1.00
C13    C     0.26167   0.90310   0.09782   0.00000  Uiso   1.00
C14    C     0.18140   0.89400   0.13742   0.00000  Uiso   1.00
C15    C     0.08410   0.93590   0.11433   0.00000  Uiso   1.00
C16    C     0.97747   0.08208   0.87086   0.00000  Uiso   1.00
C17    C     0.88214   0.96310   0.11784   0.00000  Uiso   1.00
C18    C     0.78063   0.95169   0.14383   0.00000  Uiso   1.00
C19    C     0.69953   0.95091   0.10250   0.00000  Uiso   1.00
C20    C     0.75277   0.95983   0.05189   0.00000  Uiso   1.00
C21    C     0.97573   0.97705   0.64979   0.00000  Uiso   1.00
C22    C     0.97847   0.08953   0.62754   0.00000  Uiso   1.00
C23    C     0.97928   0.19078   0.65824   0.00000  Uiso   1.00
C24    C     0.98396   0.27726   0.62126   0.00000  Uiso   1.00
C25    C     0.98751   0.22982   0.56871   0.00000  Uiso   1.00
C26    C     0.05104   0.72535   0.48641   0.00000  Uiso   1.00
H9     H     0.81383   0.37148   0.44286   0.00000  Uiso   1.00
H10    H     0.77405   0.22519   0.36222   0.00000  Uiso   1.00
H11    H     0.09707   0.87450   0.31210   0.00000  Uiso   1.00
H12    H     0.12915   0.71057   0.36529   0.00000  Uiso   1.00
N5     N     0.95512   0.13692   0.45504   0.00000  Uiso   1.00
N6     N     0.00057   0.90648   0.43861   0.00000  Uiso   1.00
N7     N     0.00230   0.87795   0.55600   0.00000  Uiso   1.00
N8     N     0.98023   0.11512   0.57182   0.00000  Uiso   1.00
H13    H     0.00213   0.61255   0.59222   0.00000  Uiso   1.00
H14    H     0.95743   0.73178   0.66821   0.00000  Uiso   1.00
H15    H     0.97520   0.21072   0.70179   0.00000  Uiso   1.00
H16    H     0.97639   0.36558   0.63237   0.00000  Uiso   1.00
Pd2    Pd    0.98640   0.00873   0.50560   0.00000  Uiso   1.00
C27    C     0.92929   0.24096   0.47342   0.00000  Uiso   1.00
C28    C     0.85358   0.29022   0.43786   0.00000  Uiso   1.00
C29    C     0.83487   0.21317   0.39525   0.00000  Uiso   1.00
C30    C     0.90869   0.12411   0.40370   0.00000  Uiso   1.00
C31    C     0.95557   0.04834   0.36363   0.00000  Uiso   1.00
C32    C     0.00400   0.94525   0.38467   0.00000  Uiso   1.00
C33    C     0.06153   0.86820   0.35276   0.00000  Uiso   1.00
C34    C     0.08364   0.77719   0.38473   0.00000  Uiso   1.00
C35    C     0.04517   0.79956   0.43842   0.00000  Uiso   1.00
C36    C     0.98226   0.29259   0.51891   0.00000  Uiso   1.00
C37    C     0.01452   0.76772   0.53964   0.00000  Uiso   1.00
C38    C     0.99364   0.70093   0.58489   0.00000  Uiso   1.00
C39    C     0.97072   0.76907   0.62853   0.00000  Uiso   1.00
C40    C     0.98039   0.87990   0.61196   0.00000  Uiso   1.00
C41    C     0.00414   0.05354   0.19695   0.00000  Uiso   1.00
C42    C     0.12793   0.08409   0.20706   0.00000  Uiso   1.00
C43    C     0.14652   0.17269   0.25165   0.00000  Uiso   1.00
C44    C     0.08510   0.27836   0.23640   0.00000  Uiso   1.00
C45    C     0.96393   0.24843   0.23105   0.00000  Uiso   1.00
C46    C     0.94474   0.16368   0.18387   0.00000  Uiso   1.00
C47    C     0.95701   0.01067   0.25270   0.00000  Uiso   1.00
C48    C     0.98533   0.09249   0.30321   0.00000  Uiso   1.00
C49    C     0.10840   0.12557   0.30644   0.00000  Uiso   1.00
C50    C     0.92564   0.20247   0.28626   0.00000  Uiso   1.00
H17    H     0.16642   0.11482   0.16825   0.00000  Uiso   1.00
H18    H     0.17320   0.01207   0.22463   0.00000  Uiso   1.00
H19    H     0.23691   0.19170   0.25513   0.00000  Uiso   1.00
H20    H     0.09847   0.34424   0.26938   0.00000  Uiso   1.00
H21    H     0.11553   0.31035   0.19606   0.00000  Uiso   1.00
H22    H     0.91596   0.32604   0.22170   0.00000  Uiso   1.00
H23    H     0.85360   0.15182   0.17920   0.00000  Uiso   1.00
H24    H     0.97675   0.19805   0.14434   0.00000  Uiso   1.00
H25    H     0.97932   0.92172   0.25622   0.00000  Uiso   1.00
H26    H     0.86559   0.00995   0.25052   0.00000  Uiso   1.00
H27    H     0.12054   0.19088   0.33979   0.00000  Uiso   1.00
H28    H     0.16258   0.05388   0.31772   0.00000  Uiso   1.00
H29    H     0.94551   0.27171   0.31637   0.00000  Uiso   1.00
H30    H     0.83488   0.18791   0.28119   0.00000  Uiso   1.00
C51    C     0.97212   0.99297   0.82229   0.00000  Uiso   1.00
C52    C     0.06875   0.90951   0.83004   0.00000  Uiso   1.00
C53    C     0.06515   0.82078   0.78483   0.00000  Uiso   1.00
C54    C     0.95827   0.75416   0.78785   0.00000  Uiso   1.00
C55    C     0.86045   0.83325   0.78148   0.00000  Uiso   1.00
C56    C     0.86555   0.92222   0.82684   0.00000  Uiso   1.00
C57    C     0.97572   0.04381   0.76232   0.00000  Uiso   1.00
C58    C     0.97179   0.95012   0.71490   0.00000  Uiso   1.00
C59    C     0.07646   0.87949   0.72973   0.00000  Uiso   1.00
C60    C     0.85932   0.89202   0.72585   0.00000  Uiso   1.00
H31    H     0.06346   0.86735   0.87103   0.00000  Uiso   1.00
H32    H     0.15139   0.94915   0.82633   0.00000  Uiso   1.00
H33    H     0.13695   0.76302   0.79079   0.00000  Uiso   1.00
H34    H     0.95531   0.68610   0.75568   0.00000  Uiso   1.00
H35    H     0.95450   0.71351   0.82926   0.00000  Uiso   1.00
H36    H     0.78198   0.78478   0.78535   0.00000  Uiso   1.00
H37    H     0.78913   0.97234   0.82043   0.00000  Uiso   1.00
H38    H     0.86295   0.87988   0.86786   0.00000  Uiso   1.00
H39    H     0.05358   0.09375   0.76005   0.00000  Uiso   1.00
H40    H     0.90179   0.09943   0.75897   0.00000  Uiso   1.00
H41    H     0.10744   0.81761   0.69914   0.00000  Uiso   1.00
H42    H     0.14796   0.93849   0.73309   0.00000  Uiso   1.00
H43    H     0.82532   0.83471   0.69325   0.00000  Uiso   1.00
H44    H     0.79430   0.95838   0.72678   0.00000  Uiso   1.00
C61    C     0.59034   0.90690   0.98268   0.00000  Uiso   1.00
C62    C     0.58704   0.87984   0.91926   0.00000  Uiso   1.00
C63    C     0.48861   0.80629   0.90248   0.00000  Uiso   1.00
C64    C     0.49710   0.69450   0.93012   0.00000  Uiso   1.00
C65    C     0.49514   0.71781   0.99172   0.00000  Uiso   1.00
C66    C     0.59366   0.79057   0.01024   0.00000  Uiso   1.00
C67    C     0.48036   0.96629   0.99848   0.00000  Uiso   1.00
C68    C     0.37704   0.89454   0.98125   0.00000  Uiso   1.00
C69    C     0.38147   0.86629   0.91787   0.00000  Uiso   1.00
C70    C     0.38727   0.77587   0.00719   0.00000  Uiso   1.00
H45    H     0.66525   0.83694   0.90692   0.00000  Uiso   1.00
H46    H     0.57504   0.95457   0.89347   0.00000  Uiso   1.00
H47    H     0.48910   0.79232   0.85644   0.00000  Uiso   1.00
H48    H     0.42559   0.64022   0.91716   0.00000  Uiso   1.00
H49    H     0.57604   0.65192   0.91869   0.00000  Uiso   1.00
H50    H     0.50024   0.63631   0.01375   0.00000  Uiso   1.00
H51    H     0.58857   0.79589   0.05613   0.00000  Uiso   1.00
H52    H     0.67216   0.74664   0.99925   0.00000  Uiso   1.00
H53    H     0.47634   0.04880   0.97770   0.00000  Uiso   1.00
H54    H     0.47883   0.98281   0.04411   0.00000  Uiso   1.00
H55    H     0.30921   0.81259   0.90536   0.00000  Uiso   1.00
H56    H     0.38138   0.93947   0.89068   0.00000  Uiso   1.00
H57    H     0.31574   0.72284   0.99292   0.00000  Uiso   1.00
H58    H     0.39106   0.77319   0.05269   0.00000  Uiso   1.00
C71    C     0.10138   0.60015   0.48637   0.00000  Uiso   1.00
C72    C     0.15842   0.56001   0.43261   0.00000  Uiso   1.00
C73    C     0.21134   0.44357   0.43789   0.00000  Uiso   1.00
C74    C     0.30080   0.44477   0.48249   0.00000  Uiso   1.00
C75    C     0.24720   0.48158   0.53604   0.00000  Uiso   1.00
C76    C     0.19899   0.59819   0.52969   0.00000  Uiso   1.00
C77    C     0.01184   0.50502   0.49506   0.00000  Uiso   1.00
C78    C     0.06590   0.38878   0.50578   0.00000  Uiso   1.00
C79    C     0.12509   0.35606   0.45170   0.00000  Uiso   1.00
C80    C     0.15588   0.40073   0.55188   0.00000  Uiso   1.00
H59    H     0.22756   0.61796   0.42277   0.00000  Uiso   1.00
H60    H     0.09627   0.55145   0.39797   0.00000  Uiso   1.00
H61    H     0.24938   0.41982   0.39736   0.00000  Uiso   1.00
H62    H     0.33716   0.35931   0.48702   0.00000  Uiso   1.00
H63    H     0.36788   0.50449   0.47160   0.00000  Uiso   1.00
H64    H     0.31162   0.48400   0.56991   0.00000  Uiso   1.00
H65    H     0.18109   0.62843   0.57226   0.00000  Uiso   1.00
H66    H     0.26558   0.65513   0.51530   0.00000  Uiso   1.00
H67    H     0.96267   0.49873   0.45555   0.00000  Uiso   1.00
H68    H     0.94652   0.52076   0.52576   0.00000  Uiso   1.00
H69    H     0.16618   0.27282   0.45643   0.00000  Uiso   1.00
H70    H     0.06704   0.35151   0.41519   0.00000  Uiso   1.00
H71    H     0.19452   0.31760   0.56040   0.00000  Uiso   1.00
H72    H     0.12017   0.43642   0.59055   0.00000  Uiso   1.00
