# Generated by REPEAT Assigner based on pymatgen
data_DB15-pcu_N123_E82_opt
_audit_creation_date              2022-05-24
_audit_creation_method            REPEAT_Assigner
_cell_length_a                    20.703205
_cell_length_b                    18.089697
_cell_length_c                    17.461699
_cell_angle_alpha                 106.816242
_cell_angle_beta                  90.859772
_cell_angle_gamma                 114.028848
_cell_volume                      5651.170069
_symmetry_space_group_name_H-M    P1
_symmetry_Int_Tables_number       1
loop_
    _symmetry_equiv_pos_site_id
    _symmetry_equiv_pos_as_xyz
    1  x,y,z
loop_
    _atom_site_type_symbol
    _atom_site_label
    _atom_site_fract_x
    _atom_site_fract_y
    _atom_site_fract_z
    _atom_type_partial_charge
    Ce  Ce1  0.119144  0.067169  0.043164  1.920993
    Ce  Ce2  0.899284  0.948374  0.962205  1.905555
    C   C1   0.953725  0.977517  0.136506  0.771170
    C   C2   0.223314  0.000632  0.053084  0.578794
    C   C3   0.012319  0.176148  0.032256  0.597868
    C   C4   0.064612  0.039718  0.869394  0.785732
    C   C5   0.789951  0.006720  0.948499  0.618311
    C   C6   0.005633  0.839459  0.974209  0.590907
    O   O1   0.891888  0.941896  0.102989  -0.565124
    O   O2   0.006619  0.006953  0.093874  -0.749365
    O   O3   0.199473  0.030508  0.118602  -0.672390
    O   O4   0.205104  0.006821  0.984028  -0.616530
    O   O5   0.074060  0.174322  0.044630  -0.737915
    O   O6   0.953097  0.105483  0.006739  -0.509826
    O   O7   0.126459  0.074853  0.902776  -0.571128
    O   O8   0.011739  0.009752  0.911871  -0.763878
    O   O9   0.817121  0.980518  0.884544  -0.656402
    O   O10  0.811174  0.006357  0.019187  -0.626454
    O   O11  0.944041  0.841426  0.961882  -0.724056
    O   O12  0.064856  0.910073  0.999151  -0.505344
    C   C7   0.968571  0.985741  0.222281  -0.182666
    C   C8   0.037754  0.024659  0.263232  0.009668
    C   C9   0.912040  0.954163  0.263067  0.025218
    C   C10  0.924366  0.961397  0.343322  -0.358744
    C   C11  0.049940  0.031828  0.343871  -0.144400
    C   C12  0.993169  0.000196  0.384100  0.445508
    C   C13  0.004830  0.007159  0.468087  -0.198200
    C   C14  0.013678  0.012414  0.538463  -0.216569
    C   C15  0.025292  0.019123  0.622384  0.460187
    C   C16  0.968464  0.987869  0.662667  -0.151459
    C   C17  0.094101  0.057018  0.662961  -0.362702
    C   C18  0.106373  0.063654  0.743051  0.022539
    C   C19  0.980595  0.994368  0.743122  0.010484
    C   C20  0.049786  0.032305  0.783851  -0.182204
    Br  Br1  0.145516  0.085717  0.399520  -0.026086
    Br  Br2  0.872883  0.935375  0.607309  -0.024061
    H   H1   0.082743  0.049804  0.232738  0.058013
    H   H2   0.857377  0.923478  0.232918  0.102626
    H   H3   0.879758  0.936533  0.374431  0.192786
    H   H4   0.138758  0.081567  0.631807  0.195261
    H   H5   0.161047  0.093587  0.773023  0.102780
    H   H6   0.935563  0.969473  0.773644  0.060442
    C   C21  0.275706  0.967549  0.055232  0.021003
    C   C22  0.276098  0.908114  0.985288  0.048572
    C   C23  0.333169  0.009374  0.116463  -0.144542
    C   C24  0.395131  0.000541  0.102209  -0.245473
    C   C25  0.337314  0.898140  0.971813  -0.172476
    C   C26  0.397826  0.948884  0.028031  0.374948
    C   C27  0.465335  0.962754  0.002704  -0.159461
    C   C28  0.522845  0.979996  0.981580  -0.223759
    C   C29  0.592884  0.003780  0.961238  0.470927
    C   C30  0.604839  0.959238  0.888677  -0.225250
    C   C31  0.648838  0.065341  0.019698  -0.298455
    C   C32  0.716875  0.074989  0.010160  -0.049883
    C   C33  0.673366  0.969934  0.878428  0.009459
    C   C34  0.728242  0.023582  0.941694  -0.042437
    Br  Br3  0.341454  0.827203  0.869182  -0.012734
    Br  Br4  0.526688  0.873477  0.808084  0.011918
    H   H7   0.230848  0.875365  0.937278  0.063508
    H   H8   0.333368  0.057479  0.170443  0.143554
    H   H9   0.443510  0.041230  0.145334  0.153503
    H   H10  0.638614  0.099811  0.076322  0.157065
    H   H11  0.759891  0.116617  0.059992  0.120868
    H   H12  0.681952  0.927833  0.825729  0.074992
    C   C35  0.007328  0.759010  0.970642  -0.090907
    C   C36  0.071225  0.758153  0.992870  0.003411
    C   C37  0.944268  0.685333  0.952460  0.061075
    C   C38  0.944942  0.612059  0.959750  -0.429387
    C   C39  0.071688  0.684767  0.999934  -0.181357
    C   C40  0.008387  0.612552  0.984917  0.485721
    C   C41  0.008014  0.538830  0.999062  -0.199186
    C   C42  0.007635  0.476981  0.011585  -0.204802
    C   C43  0.007952  0.403419  0.025397  0.463533
    C   C44  0.944667  0.331858  0.013541  -0.133323
    C   C45  0.072102  0.403252  0.046481  -0.409520
    C   C46  0.073433  0.329908  0.052612  0.038152
    C   C47  0.945738  0.258294  0.019414  -0.064254
    C   C48  0.010313  0.256748  0.037229  -0.054716
    Br  Br5  0.159436  0.684851  0.034754  -0.041047
    Br  Br6  0.855981  0.332953  0.984651  -0.042472
    H   H13  0.120947  0.815200  0.007853  0.105209
    H   H14  0.893711  0.684845  0.935264  0.083094
    H   H15  0.895471  0.554946  0.948160  0.209590
    H   H16  0.121529  0.459844  0.055553  0.207279
    H   H17  0.124457  0.329838  0.066370  0.090960
    H   H18  0.895811  0.201718  0.007262  0.117764
