# Generated by REPEAT Assigner based on pymatgen
data_DB15-cdl_N87_E158_opt
_audit_creation_date              2022-05-24
_audit_creation_method            REPEAT_Assigner
_cell_length_a                    10.213867
_cell_length_b                    9.934926
_cell_length_c                    39.008759
_cell_angle_alpha                 84.382199
_cell_angle_beta                  84.950486
_cell_angle_gamma                 88.212474
_cell_volume                      3923.056945
_symmetry_space_group_name_H-M    P1
_symmetry_Int_Tables_number       1
loop_
    _symmetry_equiv_pos_site_id
    _symmetry_equiv_pos_as_xyz
    1  x,y,z
loop_
    _atom_site_type_symbol
    _atom_site_label
    _atom_site_fract_x
    _atom_site_fract_y
    _atom_site_fract_z
    _atom_type_partial_charge
    H   H1   0.484034  0.893943  0.189818  0.094550
    H   H2   0.413805  0.763721  0.144453  0.176395
    H   H3   0.209921  0.828789  0.117730  0.061498
    N   N1   0.173211  0.999554  0.145491  -0.212882
    N   N2   0.523951  0.067976  0.102230  -0.170046
    C   C1   0.757157  0.022709  0.189239  0.612095
    H   H4   0.488104  0.249688  0.125489  0.104438
    H   H5   0.284956  0.304397  0.097353  0.111557
    H   H6   0.215936  0.156465  0.055721  0.064058
    H   H7   0.340547  0.941682  0.047293  0.155499
    H   H8   0.543346  0.894523  0.075056  -0.001910
    Cu  Cu1  0.973343  0.026496  0.132216  1.068504
    O   O1   0.883670  0.014202  0.179851  -0.672256
    Cu  Cu2  0.721052  0.051781  0.116882  1.056454
    O   O2   0.671971  0.040950  0.165927  -0.623268
    O   O3   0.794111  0.080265  0.069401  -0.666731
    O   O4   0.008826  0.055044  0.080327  -0.596693
    C   C2   0.918511  0.077945  0.058195  0.587247
    O   O5   0.755144  0.237741  0.118332  -0.544182
    O   O6   0.970550  0.224452  0.129565  -0.654354
    C   C3   0.213741  0.075202  0.169201  0.085681
    C   C4   0.327588  0.040517  0.184808  -0.170088
    O   O7   0.950348  0.833503  0.130975  -0.652914
    O   O8   0.737552  0.856824  0.118054  -0.575512
    C   C5   0.245073  0.891163  0.136017  0.246264
    C   C6   0.358926  0.853438  0.151275  -0.398058
    C   C7   0.399068  0.926993  0.176360  0.095833
    C   C8   0.863644  0.295578  0.122830  0.610312
    C   C9   0.841194  0.781240  0.123971  0.596885
    C   C10  0.452623  0.180059  0.108992  0.068556
    C   C11  0.339324  0.211661  0.092977  -0.214624
    C   C12  0.299621  0.127886  0.070029  0.093408
    C   C13  0.370110  0.010156  0.064815  -0.343012
    C   C14  0.483359  0.982142  0.080973  0.272091
    H   H9   0.153125  0.159069  0.177505  0.065571
    H   H10  0.357488  0.098976  0.204613  0.098597
    H   H11  0.390657  0.997534  0.682272  0.067802
    H   H12  0.568156  0.857903  0.708691  0.170784
    H   H13  0.658614  0.661522  0.681713  0.068946
    N   N3   0.542530  0.692818  0.639541  -0.179679
    N   N4   0.642850  0.017978  0.612584  -0.206540
    C   C15  0.335750  0.344416  0.616642  0.652557
    H   H14  0.535343  0.034243  0.568673  0.067176
    H   H15  0.634410  0.828024  0.546985  0.173881
    H   H16  0.808880  0.703459  0.577374  0.021254
    H   H17  0.877472  0.785678  0.630544  0.135012
    H   H18  0.774253  0.991917  0.651536  0.037536
    Cu  Cu3  0.575349  0.488907  0.627548  0.976820
    O   O9   0.394450  0.455521  0.620716  -0.533011
    Cu  Cu4  0.600262  0.225180  0.621021  1.064161
    O   O10  0.405539  0.229915  0.615519  -0.611429
    O   O11  0.790991  0.252200  0.624120  -0.653862
    O   O12  0.770416  0.479289  0.625669  -0.522143
    C   C16  0.845595  0.369796  0.624470  0.499426
    O   O13  0.628308  0.298670  0.572147  -0.611976
    O   O14  0.600338  0.524179  0.577150  -0.506249
    C   C17  0.444169  0.765116  0.625166  0.225326
    C   C18  0.390587  0.877403  0.639804  -0.246524
    O   O15  0.538704  0.429514  0.676125  -0.638474
    O   O16  0.548833  0.203695  0.672329  -0.643462
    C   C19  0.586482  0.725880  0.669052  0.161749
    C   C20  0.534007  0.836049  0.684545  -0.349018
    C   C21  0.435267  0.912834  0.669875  0.059609
    C   C22  0.624418  0.423548  0.557828  0.536334
    C   C23  0.527338  0.306580  0.691051  0.569525
    C   C24  0.605964  0.975233  0.583261  0.130309
    C   C25  0.663196  0.860569  0.570676  -0.309968
    C   C26  0.760998  0.791331  0.587597  0.128454
    C   C27  0.799184  0.837341  0.617215  -0.305653
    C   C28  0.739225  0.951773  0.629333  0.211896
    H   H19  0.402955  0.731820  0.602930  0.029721
    H   H20  0.310847  0.934450  0.628394  0.130324
    H   H21  0.838419  0.959377  0.944164  0.114093
    H   H22  0.813018  0.933934  0.882968  0.131650
    H   H23  0.606896  0.007819  0.858238  0.030835
    N   N5   0.523383  0.083601  0.904003  -0.189606
    N   N6   0.905026  0.167838  0.840344  -0.283047
    C   C29  0.090291  0.120048  0.934592  0.492164
    H   H24  0.842674  0.297997  0.878403  0.017851
    H   H25  0.642314  0.372852  0.851154  0.130511
    H   H26  0.601582  0.292717  0.795658  0.129765
    H   H27  0.753713  0.124698  0.769966  0.130506
    H   H28  0.951972  0.051073  0.798538  0.042603
    Cu  Cu5  0.330733  0.114741  0.885902  1.064598
    O   O17  0.219277  0.110561  0.930666  -0.637406
    Cu  Cu6  0.094301  0.140888  0.860039  1.065326
    O   O18  0.021764  0.131918  0.907548  -0.483094
    O   O19  0.190751  0.167314  0.814926  -0.607268
    O   O20  0.392468  0.149775  0.835447  -0.540376
    C   C30  0.318887  0.168341  0.809192  0.559661
    O   O21  0.128857  0.326581  0.862618  -0.612606
    O   O22  0.330609  0.312050  0.883532  -0.685613
    C   C31  0.537322  0.101034  0.937279  -0.012067
    C   C32  0.650747  0.057915  0.952067  -0.123595
    O   O23  0.308197  0.921760  0.883445  -0.700003
    O   O24  0.108173  0.946162  0.861751  -0.619827
    C   C33  0.620994  0.026070  0.884505  0.257170
    C   C34  0.736284  0.983137  0.898442  -0.268076
    C   C35  0.750768  0.997700  0.932594  -0.024535
    C   C36  0.230887  0.383801  0.871908  0.684326
    C   C37  0.206199  0.870028  0.871984  0.593290
    C   C38  0.820112  0.255839  0.855165  0.317997
    C   C39  0.708357  0.299248  0.839729  -0.275104
    C   C40  0.684726  0.253331  0.808821  -0.004288
    C   C41  0.770345  0.160542  0.794448  -0.248461
    C   C42  0.880980  0.118456  0.810654  0.185864
    H   H29  0.456980  0.143407  0.953001  0.079990
    H   H30  0.658857  0.067349  0.979137  0.136767
    H   H31  0.475254  0.303573  0.470745  0.117189
    H   H32  0.424622  0.307641  0.410052  0.057528
    H   H33  0.504843  0.122343  0.375953  0.055322
    N   N7   0.607395  0.022532  0.415964  -0.255023
    N   N8   0.713308  0.443503  0.328217  -0.212336
    C   C43  0.919313  0.723147  0.374030  0.656161
    H   H34  0.817303  0.341230  0.367606  0.049034
    H   H35  0.899392  0.160530  0.332164  0.114168
    H   H36  0.848654  0.170658  0.271414  0.059877
    H   H37  0.702577  0.353354  0.248242  0.054618
    H   H38  0.621372  0.530527  0.284804  0.093773
    Cu  Cu7  0.650545  0.845218  0.388907  1.038068
    O   O25  0.849479  0.821168  0.388105  -0.707763
    Cu  Cu8  0.676476  0.616150  0.357282  1.012321
    O   O26  0.860328  0.632225  0.359387  -0.594308
    O   O27  0.485571  0.613362  0.361916  -0.634678
    O   O28  0.458034  0.808799  0.387814  -0.641312
    C   C44  0.407746  0.705420  0.375396  0.655014
    O   O29  0.677161  0.533819  0.405438  -0.511448
    O   O30  0.640900  0.727073  0.431993  -0.613865
    C   C45  0.639797  0.021751  0.448721  0.064588
    C   C46  0.592885  0.122252  0.468806  -0.103876
    O   O31  0.663399  0.938660  0.341906  -0.553357
    O   O32  0.692520  0.745287  0.315333  -0.605490
    C   C47  0.532680  0.124140  0.401994  0.176161
    C   C48  0.486263  0.227533  0.421210  -0.090097
    C   C49  0.514654  0.225470  0.455069  -0.071676
    C   C50  0.658595  0.595388  0.433794  0.568236
    C   C51  0.683363  0.877348  0.313517  0.521582
    C   C52  0.788763  0.341286  0.341577  0.161153
    C   C53  0.836040  0.240440  0.321630  -0.184887
    C   C54  0.806733  0.245213  0.287790  -0.012964
    C   C55  0.726101  0.347814  0.274827  -0.040457
    C   C56  0.679865  0.446796  0.295495  0.029142
    H   H39  0.698989  0.939663  0.459870  0.071463
    H   H40  0.615017  0.117756  0.495472  0.098017
    H   H41  0.920557  0.462276  0.176048  0.321059
    H   H42  0.064337  0.481007  0.151232  0.347438
    N   N9   0.973044  0.526857  0.157390  -0.697182
    C   C57  0.863514  0.436757  0.111202  0.134718
    C   C58  0.841235  0.646750  0.113897  0.242432
    N   N10  0.905054  0.537432  0.127593  0.240776
    N   N11  0.778853  0.483597  0.088067  -0.257615
    N   N12  0.765728  0.615161  0.089562  -0.271803
    H   H43  0.036463  0.196435  0.666889  0.323104
    H   H44  0.028102  0.110878  0.631765  0.326022
    N   N13  0.084979  0.176835  0.643142  -0.661621
    C   C59  0.987954  0.386665  0.615615  0.152889
    C   C60  0.197853  0.366952  0.608584  0.102043
    N   N14  0.089416  0.299020  0.621974  0.285260
    N   N15  0.033030  0.502302  0.598605  -0.147151
    N   N16  0.162567  0.490638  0.594561  -0.310980
    H   H45  0.252262  0.551180  0.927607  0.320030
    H   H46  0.407459  0.567836  0.908944  0.344899
    N   N17  0.314631  0.614805  0.911173  -0.694485
    C   C61  0.237091  0.524850  0.860288  0.130941
    C   C62  0.213169  0.735251  0.861944  0.314718
    N   N18  0.267028  0.625458  0.878434  0.213010
    N   N19  0.168950  0.572155  0.833500  -0.241711
    N   N20  0.154843  0.703940  0.834389  -0.302312
    H   H47  0.071514  0.946160  0.377719  0.358404
    H   H48  0.204290  0.933316  0.400747  0.304876
    N   N21  0.167440  0.907423  0.378203  -0.636325
    C   C63  0.057693  0.687953  0.378941  0.203348
    C   C64  0.266756  0.678218  0.379012  0.227744
    N   N22  0.162834  0.766041  0.380543  0.103004
    N   N23  0.097156  0.558306  0.376845  -0.264744
    N   N24  0.226323  0.552291  0.376908  -0.241380
    H   H49  0.140705  0.909349  0.992884  0.358259
    H   H50  0.239905  0.037705  0.997675  0.370447
    N   N25  0.151728  0.991613  0.007031  -0.754458
    C   C65  0.019131  0.136956  0.968189  0.166016
    C   C66  0.947785  0.120591  0.021336  0.324738
    N   N26  0.050351  0.084859  0.999704  0.223248
    N   N27  0.902526  0.203393  0.970558  -0.242459
    N   N28  0.858142  0.193063  0.003564  -0.316728
    H   H51  0.582485  0.746487  0.496577  0.355049
    H   H52  0.454502  0.647755  0.492288  0.333305
    N   N29  0.536529  0.656508  0.506041  -0.756694
    C   C67  0.671453  0.516589  0.467107  0.134027
    C   C68  0.659195  0.444988  0.520476  0.310237
    N   N30  0.623826  0.549951  0.498534  0.256949
    N   N31  0.735516  0.396168  0.469849  -0.232423
    N   N32  0.727507  0.351411  0.503066  -0.318810
    H   H53  0.924326  0.847345  0.264909  0.331404
    H   H54  0.815550  0.736596  0.254087  0.316718
    N   N33  0.856378  0.831487  0.247300  -0.677643
    C   C69  0.680675  0.954720  0.279703  0.202544
    C   C70  0.709696  0.015009  0.225834  0.233428
    N   N34  0.755419  0.928948  0.250895  0.270660
    N   N35  0.591196  0.053572  0.272436  -0.279204
    N   N36  0.608846  0.090677  0.238756  -0.284114
    H   H55  0.431926  0.994479  0.748043  0.349752
    H   H56  0.574801  0.062113  0.729224  0.365894
    N   N37  0.506138  0.061769  0.750608  -0.755772
    C   C71  0.463333  0.297533  0.726391  0.178163
    C   C72  0.370472  0.239752  0.776509  0.281346
    N   N38  0.448125  0.191066  0.750598  0.206769
    N   N39  0.396893  0.406541  0.737405  -0.231157
    N   N40  0.338852  0.370552  0.768419  -0.288343
