# Generated by REPEAT Assigner based on pymatgen
data_DB15-pcu_N65_E33_opt
_audit_creation_date              2022-05-24
_audit_creation_method            REPEAT_Assigner
_cell_length_a                    18.910588
_cell_length_b                    15.869425
_cell_length_c                    20.149138
_cell_angle_alpha                 112.068037
_cell_angle_beta                  74.449593
_cell_angle_gamma                 124.061050
_cell_volume                      4629.277707
_symmetry_space_group_name_H-M    P1
_symmetry_Int_Tables_number       1
loop_
    _symmetry_equiv_pos_site_id
    _symmetry_equiv_pos_as_xyz
    1  x,y,z
loop_
    _atom_site_type_symbol
    _atom_site_label
    _atom_site_fract_x
    _atom_site_fract_y
    _atom_site_fract_z
    _atom_type_partial_charge
    O   O1   0.262017  0.040749  0.883799  -0.695497
    La  La1  0.125727  0.039862  0.887079  1.949424
    O   O2   0.039931  0.876502  0.929365  -0.616418
    O   O3   0.189062  0.050784  0.992920  -0.603046
    C   C1   0.253498  0.044232  0.951025  0.667106
    O   O4   0.940445  0.860945  0.028404  -0.684150
    La  La2  0.874441  0.960400  0.113172  1.949539
    C   C2   0.966174  0.994782  0.234913  0.837463
    C   C3   0.984016  0.824270  0.975757  0.776474
    C   C4   0.746703  0.956018  0.049211  0.668049
    O   O5   0.912756  0.900538  0.196499  -0.705728
    O   O6   0.992951  0.078108  0.214057  -0.691871
    C   C5   0.016129  0.175945  0.024522  0.776992
    O   O7   0.738207  0.959527  0.116440  -0.695805
    O   O8   0.960213  0.123705  0.070910  -0.616887
    O   O9   0.059704  0.139282  0.971870  -0.684102
    O   O10  0.811126  0.949446  0.007308  -0.603219
    C   C6   0.033996  0.005502  0.765372  0.838245
    O   O11  0.087394  0.099752  0.803791  -0.705833
    O   O12  0.007257  0.922183  0.786222  -0.692203
    C   C7   0.986825  0.004793  0.303158  -0.201959
    C   C8   0.995674  0.006757  0.361533  -0.127481
    C   C9   0.000173  0.004431  0.431890  0.288171
    C   C10  0.018918  0.092596  0.490815  -0.195349
    C   C11  0.019133  0.088411  0.558402  -0.195631
    C   C12  0.999984  0.995831  0.568393  0.289641
    C   C13  0.981239  0.907667  0.509469  -0.197107
    C   C14  0.981024  0.911851  0.441882  -0.193963
    C   C15  0.004485  0.993508  0.638750  -0.127444
    C   C16  0.013339  0.995478  0.697126  -0.202486
    H   H1   0.033226  0.165316  0.484237  0.145709
    H   H2   0.034745  0.158377  0.603687  0.155028
    H   H3   0.966932  0.834946  0.516046  0.146143
    H   H4   0.965412  0.841886  0.396596  0.154642
    C   C17  0.314575  0.036777  0.975359  -0.050137
    C   C18  0.368519  0.027067  0.987729  -0.192931
    C   C19  0.434447  0.012828  0.996160  0.317238
    C   C20  0.505036  0.096632  0.033155  -0.212299
    C   C21  0.570175  0.083781  0.037338  -0.190209
    C   C22  0.565739  0.987409  0.004090  0.315349
    C   C23  0.495149  0.903605  0.967096  -0.210845
    C   C24  0.430010  0.916456  0.962912  -0.192224
    C   C25  0.631669  0.973173  0.012518  -0.191722
    C   C26  0.685617  0.963466  0.024884  -0.051194
    H   H5   0.509636  0.172683  0.058647  0.144841
    H   H6   0.624739  0.149455  0.067124  0.152711
    H   H7   0.490549  0.827555  0.941602  0.144659
    H   H8   0.375446  0.850782  0.933126  0.153270
    C   C27  0.982907  0.732712  0.977775  -0.145157
    C   C28  0.985734  0.660498  0.982753  -0.141954
    C   C29  0.991776  0.577434  0.991087  0.290620
    C   C30  0.964657  0.551957  0.055512  -0.186212
    C   C31  0.972680  0.475117  0.064454  -0.194727
    C   C32  0.008367  0.422787  0.009206  0.290606
    C   C33  0.035485  0.448263  0.944781  -0.186470
    C   C34  0.027462  0.525103  0.935838  -0.194497
    C   C35  0.014408  0.339722  0.017539  -0.141664
    C   C36  0.017236  0.267506  0.022513  -0.145464
    H   H9   0.937114  0.592510  0.099411  0.164124
    H   H10  0.950648  0.455830  0.115003  0.141902
    H   H11  0.063028  0.407711  0.900882  0.164145
    H   H12  0.049494  0.544391  0.885290  0.141791
