# Generated by REPEAT Assigner based on pymatgen
data_DB15-pcu_N47_E53_opt
_audit_creation_date              2022-05-24
_audit_creation_method            REPEAT_Assigner
_cell_length_a                    15.438314
_cell_length_b                    18.944121
_cell_length_c                    18.922687
_cell_angle_alpha                 89.588699
_cell_angle_beta                  94.133940
_cell_angle_gamma                 94.215829
_cell_volume                      5504.885114
_symmetry_space_group_name_H-M    P1
_symmetry_Int_Tables_number       1
loop_
    _symmetry_equiv_pos_site_id
    _symmetry_equiv_pos_as_xyz
    1  x,y,z
loop_
    _atom_site_type_symbol
    _atom_site_label
    _atom_site_fract_x
    _atom_site_fract_y
    _atom_site_fract_z
    _atom_type_partial_charge
    O   O1   0.860397  0.993383  0.983643  -0.701207
    Ni  Ni1  0.002091  0.002967  0.995062  0.698876
    O   O2   0.802185  0.921210  0.899821  -0.629451
    O   O3   0.144105  0.011954  0.004389  -0.821740
    O   O4   0.224008  0.082614  0.081313  -0.617427
    H   H1   0.851195  0.030276  0.227608  0.127428
    H   H2   0.863804  0.032464  0.103596  0.150316
    H   H3   0.117407  0.964073  0.130473  0.091023
    H   H4   0.107325  0.959229  0.258117  0.132965
    H   H5   0.151641  0.768628  0.975134  0.153336
    H   H6   0.141006  0.892279  0.972033  0.048019
    H   H7   0.882443  0.868056  0.029921  0.075771
    H   H8   0.890363  0.740438  0.035387  0.137850
    H   H9   0.113142  0.950683  0.745353  0.136269
    H   H10  0.124303  0.954652  0.874039  0.070719
    H   H11  0.896504  0.063264  0.872171  0.074526
    H   H12  0.881952  0.060576  0.744825  0.128104
    H   H13  0.881759  0.251151  0.035712  0.127128
    H   H14  0.871425  0.122551  0.029196  0.111869
    H   H15  0.117697  0.127467  0.947109  0.079575
    H   H16  0.130947  0.254284  0.951794  0.139170
    C   C1   0.978046  0.993728  0.254137  0.381774
    C   C2   0.911032  0.014644  0.208397  -0.297843
    C   C3   0.919061  0.017318  0.136365  -0.013905
    C   C4   0.059049  0.980069  0.151930  0.060976
    C   C5   0.053279  0.976943  0.224864  -0.261114
    C   C6   0.021886  0.743299  0.006109  0.401386
    C   C7   0.090891  0.788397  0.987907  -0.407704
    C   C8   0.084039  0.860424  0.984551  0.205270
    C   C9   0.941406  0.846235  0.015886  0.096501
    C   C10  0.945923  0.773232  0.019561  -0.283618
    C   C11  0.994794  0.003102  0.734532  0.359076
    C   C12  0.064591  0.976004  0.772505  -0.250820
    C   C13  0.070198  0.977470  0.846177  0.019972
    C   C14  0.944198  0.037296  0.844817  0.100978
    C   C15  0.935720  0.035683  0.771906  -0.311225
    C   C16  0.009020  0.263344  0.997242  0.372474
    C   C17  0.934893  0.224655  0.016217  -0.243529
    C   C18  0.929884  0.151049  0.013637  -0.005221
    C   C19  0.066038  0.153967  0.968573  0.113863
    C   C20  0.073576  0.226752  0.971118  -0.337944
    C   C21  0.788683  0.961895  0.946745  0.888929
    C   C22  0.223067  0.039313  0.033870  0.957978
    N   N1   0.992738  0.000904  0.107819  -0.100649
    N   N2   0.009600  0.889841  0.997333  -0.189565
    N   N3   0.008351  0.005597  0.882137  -0.090610
    N   N4   0.997009  0.115898  0.992855  -0.106654
    H   H17  0.824112  0.972333  0.327456  0.158606
    S   S1   0.052959  0.995434  0.396554  0.090072
    C   C23  0.967427  0.988345  0.331321  -0.251575
    C   C24  0.885925  0.979140  0.358061  -0.112979
    C   C25  0.979589  0.995402  0.656852  -0.233611
    C   C26  0.895885  0.986021  0.624940  -0.065774
    C   C27  0.897536  0.982423  0.553271  -0.088935
    C   C28  0.893000  0.979206  0.430155  0.000276
    S   S2   0.813418  0.973023  0.489021  0.029298
    C   C29  0.979231  0.988949  0.530818  0.079833
    C   C30  0.976500  0.987330  0.458072  -0.002475
    S   S3   0.060625  0.998895  0.597469  0.050155
    H   H18  0.836607  0.981499  0.652252  0.174655
    H   H19  0.265564  0.945832  0.924239  0.226072
    S   S4   0.408483  0.053152  0.051348  0.039775
    C   C31  0.308865  0.019059  0.011037  -0.335769
    C   C32  0.318245  0.972477  0.956453  -0.159232
    C   C33  0.694752  0.971441  0.957403  -0.364383
    C   C34  0.631971  0.933868  0.913284  -0.033005
    C   C35  0.549542  0.947034  0.928273  -0.010540
    C   C36  0.404664  0.964615  0.947965  -0.045122
    S   S5   0.451467  0.913762  0.888824  -0.027349
    C   C37  0.546774  0.993320  0.982304  -0.000605
    C   C38  0.460513  0.003658  0.993932  0.103795
    S   S6   0.649170  0.023902  0.018436  0.037496
    H   H20  0.644931  0.898172  0.871646  0.137119
    H   H21  0.173634  0.670659  0.038863  0.161693
    S   S7   0.946980  0.600818  0.000087  0.085598
    C   C39  0.031754  0.666228  0.012865  -0.238209
    C   C40  0.112548  0.639807  0.027927  -0.119019
    C   C41  0.022465  0.340999  0.006182  -0.235275
    C   C42  0.105020  0.373435  0.021755  -0.078560
    C   C43  0.102342  0.444936  0.024846  -0.072453
    C   C44  0.105775  0.567812  0.027735  -0.003987
    S   S8   0.185270  0.509454  0.039859  0.028138
    C   C45  0.020973  0.466903  0.012276  0.070249
    C   C46  0.023057  0.539588  0.013812  0.001584
    S   S9   0.941069  0.399819  0.996504  0.056566
    H   H22  0.164300  0.346711  0.030867  0.175979
