data_DB15-pcu_N144_E177_opt_repeat
_audit_creation_date              2024-02-23
_audit_creation_method            'Materials Studio'
_symmetry_space_group_name_H-M    'P1'
_symmetry_Int_Tables_number       1
_symmetry_cell_setting            triclinic
loop_
_symmetry_equiv_pos_as_xyz
  x,y,z
_cell_length_a                    15.7232
_cell_length_b                    12.4585
_cell_length_c                    13.1108
_cell_angle_alpha                 94.7647
_cell_angle_beta                  96.5569
_cell_angle_gamma                 98.3902
loop_
_atom_site_label
_atom_site_type_symbol
_atom_site_fract_x
_atom_site_fract_y
_atom_site_fract_z
_atom_site_U_iso_or_equiv
_atom_site_adp_type
_atom_site_occupancy
C1     C     0.25134   0.83976   0.96975   0.00000  Uiso   1.00
Er1    Er    0.84709   0.05467   0.04216   0.00000  Uiso   1.00
Er2    Er    0.11045   0.99480   0.07136   0.00000  Uiso   1.00
C2     C     0.03697   0.23940   0.04389   0.00000  Uiso   1.00
O1     O     0.04743   0.99760   0.90381   0.00000  Uiso   1.00
C3     C     0.99159   0.06169   0.26348   0.00000  Uiso   1.00
C4     C     0.91121   0.81935   0.07399   0.00000  Uiso   1.00
C5     C     0.69902   0.06141   0.89712   0.00000  Uiso   1.00
O2     O     0.25546   0.76595   0.90425   0.00000  Uiso   1.00
O3     O     0.17372   0.86890   0.98294   0.00000  Uiso   1.00
O4     O     0.98995   0.87298   0.07833   0.00000  Uiso   1.00
O5     O     0.84510   0.87078   0.05349   0.00000  Uiso   1.00
O6     O     0.06011   0.04266   0.22064   0.00000  Uiso   1.00
O7     O     0.91877   0.06741   0.20599   0.00000  Uiso   1.00
C6     C     0.97461   0.00965   0.84952   0.00000  Uiso   1.00
O8     O     0.90837   0.02866   0.89655   0.00000  Uiso   1.00
O9     O     0.09559   0.17440   0.05619   0.00000  Uiso   1.00
O10    O     0.95388   0.19998   0.03833   0.00000  Uiso   1.00
O11    O     0.72002   0.96589   0.91269   0.00000  Uiso   1.00
O12    O     0.75003   0.14910   0.94213   0.00000  Uiso   1.00
H1     H     0.06995   0.15427   0.39131   0.00000  Uiso   1.00
H2     H     0.95961   0.17266   0.37912   0.00000  Uiso   1.00
H3     H     0.12096   0.02500   0.48718   0.00000  Uiso   1.00
H4     H     0.69135   0.00445   0.40854   0.00000  Uiso   1.00
H5     H     0.82937   0.03345   0.34312   0.00000  Uiso   1.00
C7     C     0.00269   0.11019   0.37257   0.00000  Uiso   1.00
C8     C     0.98584   0.03095   0.45077   0.00000  Uiso   1.00
C9     C     0.05753   0.00985   0.51227   0.00000  Uiso   1.00
C10    C     0.90486   0.01027   0.48513   0.00000  Uiso   1.00
C11    C     0.75001   0.00042   0.45887   0.00000  Uiso   1.00
C12    C     0.82905   0.01726   0.42225   0.00000  Uiso   1.00
H6     H     0.93548   0.12145   0.74796   0.00000  Uiso   1.00
H7     H     0.04768   0.11644   0.76514   0.00000  Uiso   1.00
H8     H     0.11202   0.99525   0.66455   0.00000  Uiso   1.00
H9     H     0.68358   0.96606   0.58813   0.00000  Uiso   1.00
H10    H     0.81573   0.95853   0.70234   0.00000  Uiso   1.00
C13    C     0.98323   0.06425   0.75389   0.00000  Uiso   1.00
C14    C     0.97555   0.99487   0.65401   0.00000  Uiso   1.00
C15    C     0.05231   0.99120   0.61347   0.00000  Uiso   1.00
C16    C     0.90010   0.98960   0.58675   0.00000  Uiso   1.00
C17    C     0.74561   0.97892   0.55933   0.00000  Uiso   1.00
C18    C     0.82044   0.97506   0.62344   0.00000  Uiso   1.00
H11    H     0.31532   0.95038   0.09930   0.00000  Uiso   1.00
H12    H     0.35940   0.82941   0.07865   0.00000  Uiso   1.00
H13    H     0.43794   0.79203   0.93841   0.00000  Uiso   1.00
H14    H     0.33688   0.29066   0.02873   0.00000  Uiso   1.00
H15    H     0.29993   0.09686   0.02948   0.00000  Uiso   1.00
C19    C     0.33155   0.89333   0.03794   0.00000  Uiso   1.00
C20    C     0.39836   0.94570   0.97613   0.00000  Uiso   1.00
C21    C     0.45026   0.87897   0.93338   0.00000  Uiso   1.00
C22    C     0.41542   0.05789   0.96842   0.00000  Uiso   1.00
C23    C     0.38007   0.23796   0.00125   0.00000  Uiso   1.00
C24    C     0.36042   0.12703   0.00288   0.00000  Uiso   1.00
H16    H     0.62083   0.15176   0.80377   0.00000  Uiso   1.00
H17    H     0.61511   0.01384   0.75722   0.00000  Uiso   1.00
H18    H     0.55718   0.86609   0.85116   0.00000  Uiso   1.00
H19    H     0.47137   0.36931   0.96707   0.00000  Uiso   1.00
H20    H     0.56700   0.25486   0.90333   0.00000  Uiso   1.00
C25    C     0.61801   0.06910   0.82875   0.00000  Uiso   1.00
C26    C     0.54015   0.03218   0.88177   0.00000  Uiso   1.00
C27    C     0.51870   0.92127   0.88503   0.00000  Uiso   1.00
C28    C     0.48851   0.10192   0.92527   0.00000  Uiso   1.00
C29    C     0.45499   0.28187   0.96613   0.00000  Uiso   1.00
C30    C     0.50877   0.21489   0.92827   0.00000  Uiso   1.00
H21    H     0.92452   0.75810   0.21455   0.00000  Uiso   1.00
H22    H     0.82480   0.70011   0.13530   0.00000  Uiso   1.00
H23    H     0.93976   0.65087   0.94932   0.00000  Uiso   1.00
H24    H     0.92421   0.51178   0.42959   0.00000  Uiso   1.00
H25    H     0.88142   0.62242   0.29818   0.00000  Uiso   1.00
C31    C     0.89565   0.72354   0.13554   0.00000  Uiso   1.00
C32    C     0.93431   0.62253   0.10765   0.00000  Uiso   1.00
C33    C     0.95347   0.59873   0.00899   0.00000  Uiso   1.00
C34    C     0.94930   0.54968   0.18133   0.00000  Uiso   1.00
C35    C     0.94491   0.49919   0.35427   0.00000  Uiso   1.00
C36    C     0.92197   0.56317   0.27844   0.00000  Uiso   1.00
H26    H     0.13333   0.38047   0.07911   0.00000  Uiso   1.00
H27    H     0.08164   0.36072   0.95010   0.00000  Uiso   1.00
H28    H     0.00590   0.49280   0.90710   0.00000  Uiso   1.00
H29    H     0.01558   0.37299   0.39577   0.00000  Uiso   1.00
H30    H     0.05822   0.33910   0.22767   0.00000  Uiso   1.00
C37    C     0.06933   0.35683   0.03135   0.00000  Uiso   1.00
C38    C     0.01280   0.44011   0.05906   0.00000  Uiso   1.00
C39    C     0.99039   0.50747   0.98474   0.00000  Uiso   1.00
C40    C     0.99352   0.46301   0.15913   0.00000  Uiso   1.00
C41    C     0.99549   0.42105   0.33513   0.00000  Uiso   1.00
C42    C     0.01908   0.40217   0.23829   0.00000  Uiso   1.00
