# Generated by REPEAT Assigner based on pymatgen
data_DB15-dmp_N76_E73_opt
_audit_creation_date              2022-05-24
_audit_creation_method            REPEAT_Assigner
_cell_length_a                    34.949408
_cell_length_b                    12.473248
_cell_length_c                    18.966974
_cell_angle_alpha                 90.000000
_cell_angle_beta                  90.000000
_cell_angle_gamma                 92.502579
_cell_volume                      8260.437070
_symmetry_space_group_name_H-M    P1
_symmetry_Int_Tables_number       1
loop_
    _symmetry_equiv_pos_site_id
    _symmetry_equiv_pos_as_xyz
    1  x,y,z
loop_
    _atom_site_type_symbol
    _atom_site_label
    _atom_site_fract_x
    _atom_site_fract_y
    _atom_site_fract_z
    _atom_type_partial_charge
    C   C1   0.163814  0.438794  0.234119  0.922277
    C   C2   0.205876  0.174701  0.304385  0.725830
    C   C3   0.066450  0.322942  0.311944  0.093751
    C   C4   0.036457  0.356340  0.352237  -0.367231
    C   C5   0.038138  0.349174  0.424675  0.502305
    C   C6   0.069169  0.302224  0.454944  -0.371355
    C   C7   0.098783  0.269610  0.412927  0.159622
    C   C8   0.084940  0.086275  0.226771  0.094581
    C   C9   0.062954  0.028858  0.178268  -0.298591
    C   C10  0.072528  0.033164  0.107713  0.541756
    C   C11  0.105814  0.088946  0.088142  -0.464555
    C   C12  0.126977  0.146042  0.137897  0.280899
    N   N1   0.097424  0.282064  0.342392  -0.292220
    N   N2   0.115717  0.146792  0.205779  -0.338773
    O   O1   0.139747  0.378520  0.196869  -0.752283
    O   O2   0.172184  0.411042  0.298432  -0.644744
    O   O3   0.202428  0.218556  0.242447  -0.609040
    O   O4   0.175347  0.160546  0.344464  -0.712013
    Zn  Zn1  0.143383  0.256827  0.274719  0.997715
    H   H1   0.065584  0.332960  0.255378  0.111782
    H   H2   0.012144  0.390251  0.326624  0.185068
    H   H3   0.071516  0.296090  0.511613  0.165307
    H   H4   0.123900  0.238189  0.437266  0.116929
    H   H5   0.076144  0.086784  0.281366  0.093138
    H   H6   0.037054  0.986214  0.195582  0.120183
    H   H7   0.114960  0.091059  0.033724  0.163426
    H   H8   0.151913  0.194006  0.121557  0.109265
    C   C13  0.293961  0.685740  0.225728  0.657779
    C   C14  0.336264  0.959953  0.290949  0.865090
    C   C15  0.411038  0.608065  0.280531  0.175176
    C   C16  0.435168  0.544660  0.318096  -0.372150
    C   C17  0.435698  0.549524  0.390752  0.527916
    C   C18  0.410563  0.614868  0.424239  -0.405627
    C   C19  0.386994  0.677665  0.385036  0.204685
    C   C20  0.433197  0.855534  0.196865  0.089754
    C   C21  0.460967  0.884267  0.147925  -0.312166
    C   C22  0.453370  0.872224  0.076927  0.573337
    C   C23  0.418156  0.828170  0.056764  -0.511932
    C   C24  0.390977  0.800818  0.107028  0.354723
    N   N3   0.387991  0.675307  0.314065  -0.351375
    N   N4   0.398662  0.815031  0.176112  -0.395778
    O   O5   0.323538  0.676662  0.183810  -0.683656
    O   O6   0.299416  0.727207  0.288126  -0.617788
    O   O7   0.326442  0.928484  0.227572  -0.643234
    O   O8   0.361487  0.907137  0.326697  -0.751282
    Zn  Zn2  0.356552  0.779747  0.253026  1.045622
    H   H9   0.411360  0.605393  0.223589  0.066401
    H   H10  0.453738  0.492152  0.290151  0.196406
    H   H11  0.410314  0.621073  0.481077  0.161256
    H   H12  0.368321  0.731327  0.411696  0.110711
    H   H13  0.439027  0.867331  0.252359  0.102548
    H   H14  0.488102  0.919349  0.165701  0.140828
    H   H15  0.411519  0.814667  0.001759  0.169473
    H   H16  0.363246  0.769148  0.090183  0.070650
    C   C25  0.794482  0.682764  0.787431  0.718482
    C   C26  0.837125  0.955016  0.716754  0.929489
    C   C27  0.909544  0.600457  0.715803  0.150381
    C   C28  0.931774  0.537884  0.673693  -0.366915
    C   C29  0.927653  0.540783  0.601350  0.468414
    C   C30  0.900212  0.604485  0.573145  -0.353000
    C   C31  0.878623  0.666320  0.616761  0.157233
    C   C32  0.936321  0.840276  0.797119  0.037121
    C   C33  0.966230  0.868559  0.841677  -0.283148
    C   C34  0.961400  0.860248  0.913641  0.488330
    C   C35  0.926289  0.823707  0.939403  -0.432207
    C   C36  0.896883  0.796718  0.893359  0.270953
    N   N5   0.884086  0.665745  0.687023  -0.288041
    N   N6   0.902181  0.805200  0.823167  -0.299033
    O   O9   0.825385  0.672557  0.825826  -0.705900
    O   O10  0.797711  0.727229  0.725485  -0.562969
    O   O11  0.829726  0.925744  0.781641  -0.666581
    O   O12  0.860329  0.899629  0.678112  -0.772607
    Zn  Zn3  0.856706  0.773332  0.752507  0.971836
    H   H17  0.913849  0.600192  0.772210  0.081760
    H   H18  0.953709  0.491686  0.697799  0.177658
    H   H19  0.895953  0.608371  0.516770  0.160822
    H   H20  0.858042  0.718446  0.593957  0.127112
    H   H21  0.940138  0.848216  0.740778  0.113770
    H   H22  0.993273  0.897758  0.819763  0.128583
    H   H23  0.920983  0.820544  0.995498  0.152995
    H   H24  0.869199  0.771586  0.914275  0.096210
    C   C37  0.664472  0.442875  0.774602  0.835143
    C   C38  0.707763  0.179647  0.706235  0.582447
    C   C39  0.570920  0.340502  0.682376  0.079045
    C   C40  0.542055  0.370868  0.638199  -0.313056
    C   C41  0.543960  0.349322  0.566992  0.455318
    C   C42  0.575098  0.296608  0.541884  -0.357581
    C   C43  0.603531  0.267319  0.587680  0.199558
    C   C44  0.584654  0.090696  0.766758  0.132829
    C   C45  0.560456  0.031315  0.810576  -0.300161
    C   C46  0.566522  0.032637  0.882420  0.522595
    C   C47  0.597750  0.091228  0.908645  -0.419336
    C   C48  0.621232  0.150309  0.863393  0.212733
    N   N7   0.601332  0.290231  0.656964  -0.331122
    N   N8   0.613933  0.151418  0.793678  -0.314470
    O   O13  0.639010  0.382358  0.808497  -0.722949
    O   O14  0.675111  0.415980  0.711328  -0.531002
    O   O15  0.702093  0.219104  0.768850  -0.597625
    O   O16  0.678584  0.167449  0.662757  -0.679693
    Zn  Zn4  0.644718  0.262417  0.729880  0.986275
    H   H25  0.569577  0.360074  0.737791  0.097965
    H   H26  0.519000  0.415790  0.659605  0.189627
    H   H27  0.577673  0.278771  0.486360  0.153832
    H   H28  0.628140  0.228087  0.567211  0.100018
    H   H29  0.578923  0.092031  0.710803  0.074637
    H   H30  0.536196  0.986376  0.788390  0.126969
    H   H31  0.602640  0.097075  0.964783  0.150905
    H   H32  0.644561  0.200011  0.884668  0.117469
    H   H33  0.326491  0.148355  0.191327  0.381669
    H   H34  0.287048  0.931009  0.395950  0.173414
    O   O17  0.219789  0.008756  0.406194  -0.497896
    H   H35  0.221981  0.042599  0.453322  0.320530
    H   H36  0.271290  0.251098  0.251447  0.232895
    C   C49  0.313282  0.041326  0.322655  -0.206677
    C   C50  0.309039  0.133888  0.284760  0.467027
    C   C51  0.284550  0.006314  0.368481  -0.332626
    C   C52  0.243905  0.138581  0.323063  -0.109453
    C   C53  0.249614  0.054317  0.368587  0.381749
    C   C54  0.274682  0.182969  0.285732  -0.416650
    O   O18  0.336842  0.168394  0.238338  -0.622293
    H   H37  0.203269  0.428317  0.074374  0.307672
    H   H38  0.167729  0.638012  0.279898  0.103633
    O   O19  0.227406  0.765336  0.288169  -0.387685
    H   H39  0.226230  0.735598  0.336575  0.330080
    H   H40  0.274442  0.531276  0.130803  0.167544
    C   C55  0.186719  0.526835  0.203911  -0.347999
    C   C56  0.215854  0.501403  0.158317  0.503818
    C   C57  0.190168  0.618946  0.243327  -0.206872
    C   C58  0.255572  0.642164  0.208113  0.057687
    C   C59  0.224273  0.677483  0.245102  0.201550
    C   C60  0.250447  0.559148  0.160558  -0.434316
    O   O20  0.213218  0.407620  0.121080  -0.487133
    H   H41  0.774814  0.238724  0.820326  0.324637
    H   H42  0.726991  0.028579  0.611622  0.183762
    O   O21  0.787342  0.915744  0.603305  -0.486958
    H   H43  0.797770  0.939262  0.557022  0.309976
    H   H44  0.833133  0.151954  0.765274  0.102382
    C   C61  0.745984  0.142089  0.690071  0.116861
    C   C62  0.777220  0.181899  0.728689  0.164240
    C   C63  0.750912  0.060161  0.642492  -0.455394
    C   C64  0.814106  0.038553  0.687765  -0.330895
    C   C65  0.785076  0.008354  0.641240  0.480693
    C   C66  0.810852  0.129158  0.727952  -0.186771
    O   O22  0.774468  0.268826  0.772023  -0.373403
    H   H45  0.778832  0.548199  0.937294  0.313866
    H   H46  0.729149  0.748292  0.737228  0.228337
    O   O23  0.663247  0.651665  0.724930  -0.552507
    H   H47  0.647219  0.700520  0.752080  0.320070
    H   H48  0.712758  0.423527  0.880685  0.166106
    C   C67  0.756369  0.640600  0.807825  -0.100437
    C   C68  0.750530  0.555092  0.853407  0.361738
    C   C69  0.725582  0.679522  0.771629  -0.404260
    C   C70  0.686730  0.529154  0.808287  -0.310673
    C   C71  0.690986  0.623467  0.771296  0.459420
    C   C72  0.715381  0.499929  0.853822  -0.271335
    O   O24  0.780400  0.515060  0.890008  -0.489328
    H   H49  0.065509  0.144631  0.945227  0.353606
    H   H50  0.038617  0.835847  0.109895  0.144076
    O   O25  0.988087  0.738781  0.029713  -0.537946
    H   H51  0.971820  0.744398  0.072179  0.365689
    H   H52  0.999314  0.049316  0.906831  0.149638
    C   C73  0.046380  0.984928  0.054718  -0.251150
    C   C74  0.035409  0.043600  0.996637  0.410894
    C   C75  0.030150  0.883111  0.065214  -0.288745
    C   C76  0.991790  0.899970  0.961511  -0.205591
    C   C77  0.003000  0.840598  0.018991  0.424063
    C   C78  0.008528  0.000759  0.950335  -0.303486
    O   O26  0.048726  0.147264  0.987198  -0.503840
    H   H53  0.593502  0.930009  0.037720  0.365602
    H   H54  0.491714  0.061400  0.879038  0.134899
    O   O27  0.435591  0.004495  0.960612  -0.502184
    H   H55  0.425701  0.966948  0.917915  0.349315
    H   H56  0.528059  0.831283  0.075949  0.136085
    C   C79  0.537621  0.984273  0.930163  -0.245162
    C   C80  0.547595  0.919995  0.986096  0.476534
    C   C81  0.499777  0.008549  0.921157  -0.307996
    C   C82  0.482074  0.907775  0.024348  -0.275173
    C   C83  0.472143  0.971369  0.967943  0.449232
    C   C84  0.519886  0.881985  0.032755  -0.311613
    O   O28  0.584604  0.891343  0.994752  -0.550569
    H   H57  0.926397  0.283978  0.595828  0.348032
    H   H58  0.964133  0.627324  0.490588  0.134092
    O   O29  0.015360  0.561808  0.405729  -0.531626
    H   H59  0.036618  0.601074  0.430470  0.355430
    H   H60  0.000072  0.256653  0.533551  0.133330
    C   C85  0.954538  0.487408  0.554761  -0.279438
    C   C86  0.965161  0.383180  0.566645  0.454671
    C   C87  0.970974  0.544739  0.499424  -0.260454
    C   C88  0.008617  0.396021  0.468723  -0.299459
    C   C89  0.997849  0.499938  0.456822  0.452337
    C   C90  0.992212  0.338236  0.523962  -0.260642
    O   O30  0.948288  0.322654  0.619070  -0.526136
    H   H61  0.522178  0.627071  0.381623  0.352160
    H   H62  0.420666  0.425679  0.503655  0.139777
    O   O31  0.463392  0.323908  0.589930  -0.557728
    H   H63  0.457496  0.251348  0.570566  0.358719
    H   H64  0.557828  0.455825  0.446794  0.142521
    C   C91  0.463158  0.489685  0.432161  -0.308776
    C   C92  0.501809  0.495287  0.415830  0.416961
    C   C93  0.450804  0.432236  0.490754  -0.202892
    C   C94  0.515428  0.390971  0.518326  -0.303815
    C   C95  0.476636  0.382579  0.533450  0.416175
    C   C96  0.527630  0.445925  0.458611  -0.195452
    O   O32  0.515224  0.556272  0.360526  -0.555277
