# Generated by REPEAT Assigner based on pymatgen
data_DB15-pcu_N123_E41_unopt
_audit_creation_date              2022-05-24
_audit_creation_method            REPEAT_Assigner
_cell_length_a                    18.381000
_cell_length_b                    15.968000
_cell_length_c                    15.600000
_cell_angle_alpha                 106.630000
_cell_angle_beta                  90.840000
_cell_angle_gamma                 113.810000
_cell_volume                      3969.292342
_symmetry_space_group_name_H-M    P1
_symmetry_Int_Tables_number       1
loop_
    _symmetry_equiv_pos_site_id
    _symmetry_equiv_pos_as_xyz
    1  x,y,z
loop_
    _atom_site_type_symbol
    _atom_site_label
    _atom_site_fract_x
    _atom_site_fract_y
    _atom_site_fract_z
    _atom_type_partial_charge
    Ce  Ce1  0.122660  0.085390  0.006630  1.837865
    Ce  Ce2  0.877540  0.914810  0.993570  1.837668
    C   C1   0.989030  0.012670  0.170810  0.749340
    C   C2   0.263140  0.050070  0.020470  0.611853
    C   C3   0.967910  0.153890  0.984470  0.579121
    C   C4   0.011180  0.987530  0.829390  0.746389
    C   C5   0.737060  0.950130  0.979730  0.609001
    C   C6   0.032290  0.846310  0.015730  0.579314
    O   O1   0.913980  0.966850  0.160830  -0.480228
    O   O2   0.024290  0.037620  0.107460  -0.674851
    O   O3   0.246280  0.098510  0.090100  -0.661323
    O   O4   0.231560  0.033890  0.942450  -0.462546
    O   O5   0.040240  0.170700  0.985680  -0.432450
    O   O6   0.913480  0.083010  0.998670  -0.538169
    O   O7   0.086220  0.033350  0.839380  -0.478619
    O   O8   0.975910  0.962590  0.892750  -0.675342
    O   O9   0.753920  0.901690  0.910100  -0.661561
    O   O10  0.768640  0.966310  0.057750  -0.460787
    O   O11  0.959960  0.829500  0.014510  -0.429270
    O   O12  0.086720  0.917200  0.001530  -0.538923
    C   C7   0.000100  0.000100  0.253350  -0.250636
    C   C8   0.000100  0.000100  0.352070  0.041484
    C   C9   0.001010  0.000100  0.450880  -0.049022
    C   C10  0.001130  0.000100  0.549550  -0.032570
    C   C11  0.000100  0.000100  0.648280  0.028650
    C   C12  0.000100  0.000100  0.746910  -0.243095
    C   C13  0.290730  0.000100  0.000100  -0.046303
    C   C14  0.374640  0.000100  0.000100  -0.019113
    C   C15  0.458610  0.001150  0.000100  -0.032528
    C   C16  0.542390  0.001280  0.000100  -0.037009
    C   C17  0.626100  0.000100  0.000100  -0.017941
    C   C18  0.709640  0.000100  0.000100  -0.043452
    C   C19  0.999900  0.741080  0.999900  -0.108648
    C   C20  0.999900  0.644450  0.999900  -0.062286
    C   C21  0.999900  0.547730  0.999900  -0.008960
    C   C22  0.999900  0.451280  0.999900  -0.007038
    C   C23  0.999900  0.354960  0.999900  -0.062225
    C   C24  0.999900  0.258850  0.999900  -0.105786
