data_DB15-pcu_N65_E199_opt_repeat
_audit_creation_date              2024-02-23
_audit_creation_method            'Materials Studio'
_symmetry_space_group_name_H-M    'P1'
_symmetry_Int_Tables_number       1
_symmetry_cell_setting            triclinic
loop_
_symmetry_equiv_pos_as_xyz
  x,y,z
_cell_length_a                    13.3351
_cell_length_b                    10.1244
_cell_length_c                    14.6489
_cell_angle_alpha                 111.8328
_cell_angle_beta                  74.5363
_cell_angle_gamma                 124.3081
loop_
_atom_site_label
_atom_site_type_symbol
_atom_site_fract_x
_atom_site_fract_y
_atom_site_fract_z
_atom_site_U_iso_or_equiv
_atom_site_adp_type
_atom_site_occupancy
O1     O     0.36482   0.04174   0.88441   0.00000  Uiso   1.00
La1    La    0.20854   0.07019   0.83646   0.00000  Uiso   1.00
O2     O     0.04642   0.91244   0.94890   0.00000  Uiso   1.00
O3     O     0.28284   0.17530   0.01002   0.00000  Uiso   1.00
C1     C     0.35641   0.11749   0.97793   0.00000  Uiso   1.00
O4     O     0.91709   0.80578   0.07029   0.00000  Uiso   1.00
La2    La    0.79279   0.92724   0.16115   0.00000  Uiso   1.00
C2     C     0.95669   0.04845   0.32128   0.00000  Uiso   1.00
C3     C     0.00169   0.80471   0.99939   0.00000  Uiso   1.00
C4     C     0.64487   0.87993   0.01968   0.00000  Uiso   1.00
O5     O     0.85376   0.90477   0.30712   0.00000  Uiso   1.00
O6     O     0.99331   0.14478   0.26479   0.00000  Uiso   1.00
C5     C     0.99962   0.19269   0.99820   0.00000  Uiso   1.00
O7     O     0.63645   0.95570   0.11320   0.00000  Uiso   1.00
O8     O     0.95490   0.08497   0.04870   0.00000  Uiso   1.00
O9     O     0.08423   0.19164   0.92730   0.00000  Uiso   1.00
O10    O     0.71845   0.82213   0.98761   0.00000  Uiso   1.00
C6     C     0.04470   0.94905   0.67635   0.00000  Uiso   1.00
O11    O     0.14763   0.09274   0.69050   0.00000  Uiso   1.00
O12    O     0.00811   0.85273   0.73284   0.00000  Uiso   1.00
C7     C     0.03279   0.10387   0.40131   0.00000  Uiso   1.00
H1     H     0.04779   0.22642   0.45041   0.00000  Uiso   1.00
H2     H     0.12212   0.11755   0.36809   0.00000  Uiso   1.00
C8     C     0.97295   0.98275   0.46125   0.00000  Uiso   1.00
H3     H     0.88511   0.86946   0.44576   0.00000  Uiso   1.00
C9     C     0.02844   0.01473   0.53637   0.00000  Uiso   1.00
H4     H     0.11628   0.12802   0.55186   0.00000  Uiso   1.00
C10    C     0.96860   0.89362   0.59631   0.00000  Uiso   1.00
H5     H     0.87927   0.87993   0.62954   0.00000  Uiso   1.00
H6     H     0.95361   0.77107   0.54722   0.00000  Uiso   1.00
C11    C     0.43028   0.13626   0.04704   0.00000  Uiso   1.00
H7     H     0.36866   0.07145   0.10374   0.00000  Uiso   1.00
H8     H     0.48975   0.27027   0.08362   0.00000  Uiso   1.00
C12    C     0.50747   0.06360   0.99010   0.00000  Uiso   1.00
H9     H     0.57479   0.11767   0.93370   0.00000  Uiso   1.00
C13    C     0.49380   0.93379   0.00749   0.00000  Uiso   1.00
H10    H     0.42649   0.87972   0.06390   0.00000  Uiso   1.00
C14    C     0.57100   0.86114   0.95056   0.00000  Uiso   1.00
H11    H     0.51154   0.72711   0.91398   0.00000  Uiso   1.00
H12    H     0.63262   0.92594   0.89386   0.00000  Uiso   1.00
C15    C     0.06681   0.72107   0.99512   0.00000  Uiso   1.00
H13    H     0.12296   0.79006   0.05930   0.00000  Uiso   1.00
H14    H     0.12747   0.72394   0.92638   0.00000  Uiso   1.00
C16    C     0.97976   0.54488   0.99840   0.00000  Uiso   1.00
H15    H     0.88261   0.49242   0.00092   0.00000  Uiso   1.00
C17    C     0.02155   0.45251   0.99920   0.00000  Uiso   1.00
H16    H     0.11870   0.50498   0.99668   0.00000  Uiso   1.00
C18    C     0.93450   0.27633   0.00248   0.00000  Uiso   1.00
H17    H     0.87383   0.27345   0.07121   0.00000  Uiso   1.00
H18    H     0.87835   0.20734   0.93829   0.00000  Uiso   1.00
