# Generated by REPEAT Assigner based on pymatgen
data_DB15-qtz-x_N65_E204_opt
_audit_creation_date              2022-05-24
_audit_creation_method            REPEAT_Assigner
_cell_length_a                    12.515329
_cell_length_b                    12.472448
_cell_length_c                    26.414552
_cell_angle_alpha                 80.935993
_cell_angle_beta                  77.734766
_cell_angle_gamma                 60.640855
_cell_volume                      3504.722923
_symmetry_space_group_name_H-M    P1
_symmetry_Int_Tables_number       1
loop_
    _symmetry_equiv_pos_site_id
    _symmetry_equiv_pos_as_xyz
    1  x,y,z
loop_
    _atom_site_type_symbol
    _atom_site_label
    _atom_site_fract_x
    _atom_site_fract_y
    _atom_site_fract_z
    _atom_type_partial_charge
    O   O1   0.451902  0.189543  0.038510  -0.697394
    La  La1  0.629109  0.121679  0.089354  1.969973
    O   O2   0.647769  0.315450  0.057124  -0.675234
    O   O3   0.403940  0.285810  0.112463  -0.520153
    C   C1   0.369165  0.263269  0.073754  0.451152
    O   O4   0.573240  0.464998  0.114989  -0.798093
    La  La2  0.473068  0.490188  0.205948  2.013250
    C   C2   0.262478  0.588745  0.143439  0.628148
    C   C3   0.628568  0.424110  0.068286  0.797828
    C   C4   0.635528  0.431272  0.283189  0.622770
    O   O5   0.311302  0.654320  0.151658  -0.738004
    O   O6   0.295479  0.478110  0.166457  -0.571659
    C   C5   0.575151  0.156139  0.231282  0.793850
    O   O7   0.518987  0.514931  0.290140  -0.739932
    O   O8   0.526130  0.273556  0.239788  -0.694110
    O   O9   0.608040  0.118658  0.183705  -0.730295
    O   O10  0.684175  0.372023  0.240255  -0.567050
    C   C6   0.901883  0.934270  0.083619  0.599856
    O   O11  0.814604  0.914374  0.113078  -0.691174
    O   O12  0.875792  0.043893  0.060814  -0.630537
    O   O13  0.376417  0.985923  0.401115  -0.634064
    La  La3  0.332401  0.833177  0.469489  1.993695
    O   O14  0.527308  0.631576  0.447824  -0.609565
    O   O15  0.540220  0.845083  0.438465  -0.605303
    C   C7   0.495461  0.931985  0.401740  0.420896
    O   O16  0.672161  0.482169  0.500258  -0.592245
    La  La4  0.714908  0.445082  0.588989  1.863133
    C   C8   0.884652  0.539120  0.521898  0.534725
    C   C9   0.628389  0.525472  0.455901  0.783251
    C   C10  0.571385  0.325842  0.650829  0.633811
    O   O17  0.910921  0.423266  0.526190  -0.696183
    O   O18  0.786777  0.619834  0.550855  -0.655514
    C   C11  0.398933  0.687442  0.595518  0.752667
    O   O19  0.657318  0.330274  0.669927  -0.747064
    O   O20  0.514094  0.617032  0.576103  -0.509344
    O   O21  0.331926  0.766381  0.561565  -0.751642
    O   O22  0.537061  0.388746  0.607245  -0.648624
    C   C12  0.184409  0.699151  0.467724  0.638254
    O   O23  0.131453  0.807173  0.486966  -0.652964
    O   O24  0.304440  0.640845  0.454140  -0.598087
    O   O25  0.679602  0.816174  0.697942  -0.632897
    La  La5  0.814538  0.644057  0.757596  1.897279
    O   O26  0.019243  0.650020  0.740196  -0.674239
    O   O27  0.735207  0.880982  0.758257  -0.536571
    C   C13  0.668240  0.906121  0.721629  0.444765
    O   O28  0.078312  0.692148  0.808787  -0.711006
    La  La6  0.988976  0.752380  0.897728  1.920069
    C   C14  0.906510  0.980950  0.823752  0.668329
    C   C15  0.101105  0.661862  0.760450  0.820241
    C   C16  0.043634  0.547548  0.977600  0.783838
    O   O29  0.983035  0.956376  0.855740  -0.749851
    O   O30  0.848739  0.915233  0.827331  -0.643979
    C   C17  0.778195  0.622797  0.901502  0.654760
    O   O31  0.966941  0.661233  0.989275  -0.729965
    O   O32  0.838542  0.671946  0.915044  -0.615622
    O   O33  0.774439  0.621384  0.852183  -0.605017
    O   O34  0.099619  0.522250  0.929599  -0.703978
    C   C18  0.913513  0.366969  0.758519  0.435861
    O   O35  0.817310  0.435400  0.791173  -0.563150
    O   O36  0.984076  0.412156  0.730571  -0.602509
    C   C19  0.189582  0.695585  0.012787  -0.120406
    C   C20  0.082859  0.805134  0.022862  0.041740
    H   H1   0.031946  0.770013  0.153192  0.143485
    H   H2   0.329146  0.532889  0.045439  0.146463
    H   H3   0.042829  0.869248  0.991101  0.016736
    C   C21  0.183277  0.639566  0.103851  -0.032083
    C   C22  0.024369  0.829583  0.073294  0.072445
    C   C23  0.073944  0.746652  0.113564  -0.162597
    Br  Br1  0.272957  0.662103  0.943286  -0.079278
    C   C24  0.239437  0.612968  0.053228  0.069506
    C   C25  0.093061  0.528654  0.399217  0.132051
    C   C26  0.001901  0.518469  0.435523  -0.292626
    H   H4   0.990816  0.679684  0.529618  0.161575
    H   H5   0.225216  0.593913  0.382407  0.127189
    H   H6   0.961325  0.465055  0.427602  0.207530
    C   C27  0.112610  0.645463  0.456711  -0.054228
    C   C28  0.964008  0.573441  0.482091  0.251292
    C   C29  0.016280  0.641166  0.492317  -0.230853
    Br  Br2  0.145026  0.451948  0.335168  -0.107886
    C   C30  0.150354  0.589677  0.410375  -0.075002
    C   C31  0.945368  0.112779  0.689762  0.044216
    C   C32  0.949646  0.216215  0.699015  -0.045350
    H   H7   0.890911  0.198819  0.829546  0.180236
    H   H8   0.924624  0.955812  0.723345  0.175170
    H   H9   0.962838  0.275706  0.666683  0.065737
    C   C33  0.901281  0.071407  0.780971  0.024474
    C   C34  0.930152  0.247219  0.749280  0.123244
    C   C35  0.905408  0.175042  0.790131  -0.197172
    Br  Br3  0.972765  0.069981  0.620280  -0.098062
    C   C36  0.921634  0.040108  0.730726  -0.126285
    C   C37  0.487332  0.728239  0.993601  -0.003521
    C   C38  0.511980  0.633342  0.031193  -0.124625
    H   H10  0.796232  0.427710  0.976053  0.146613
    H   H11  0.553865  0.793883  0.921543  0.040055
    H   H12  0.443071  0.647638  0.065194  0.171222
    C   C39  0.683213  0.610004  0.942549  0.101061
    C   C40  0.619570  0.521615  0.025357  -0.031727
    C   C41  0.707746  0.510543  0.980490  -0.244109
    Br  Br4  0.338538  0.880572  0.004198  -0.039422
    C   C42  0.571544  0.715983  0.949436  -0.015580
    C   C43  0.785615  0.904528  0.315440  0.078189
    C   C44  0.740890  0.987983  0.274520  -0.101018
    H   H13  0.434383  0.107712  0.319159  0.211851
    H   H14  0.743486  0.822135  0.388128  0.172399
    H   H15  0.805446  0.996886  0.241925  0.144948
    C   C45  0.578395  0.962265  0.359484  0.269654
    C   C46  0.615127  0.063145  0.275560  0.015586
    C   C47  0.533221  0.050895  0.318560  -0.367551
    Br  Br5  0.960225  0.804909  0.313299  -0.126715
    C   C48  0.705380  0.891320  0.357490  -0.207919
    C   C49  0.389920  0.157800  0.670791  0.190733
    C   C50  0.418735  0.252854  0.660411  -0.205642
    H   H16  0.691110  0.114315  0.705976  0.220390
    H   H17  0.449121  0.971111  0.698204  0.096918
    H   H18  0.359301  0.336563  0.639901  0.156849
    C   C51  0.577510  0.031454  0.706491  0.180518
    C   C52  0.526088  0.238402  0.673621  0.116848
    C   C53  0.603493  0.128909  0.698509  -0.336275
    Br  Br6  0.247080  0.174354  0.648826  -0.133258
    C   C54  0.470007  0.046989  0.692800  -0.169362
    C   C55  0.027750  0.409447  0.110735  0.152897
    C   C56  0.152146  0.339454  0.113568  -0.216499
    H   H19  0.270241  0.371783  0.988685  0.123468
    H   H20  0.893767  0.534076  0.063363  0.105268
    H   H21  0.181690  0.297734  0.150595  0.163252
    C   C57  0.077881  0.455446  0.020395  -0.087302
    C   C58  0.238603  0.324299  0.069384  0.119143
    C   C59  0.201538  0.377097  0.022246  -0.082042
    Br  Br7  0.908118  0.434001  0.171902  -0.147508
    C   C60  0.990812  0.470303  0.064431  -0.091618
    C   C61  0.873236  0.273427  0.371607  0.104591
    C   C62  0.812073  0.345278  0.413810  -0.128138
    H   H22  0.556625  0.557941  0.365571  0.149926
    H   H23  0.865847  0.242680  0.295458  0.089700
    H   H24  0.855038  0.319363  0.448273  0.117257
    C   C63  0.704667  0.403910  0.325617  0.070793
    C   C64  0.697897  0.448778  0.411459  -0.143578
    C   C65  0.646188  0.478071  0.367053  -0.136310
    Br  Br8  0.030399  0.131022  0.375199  -0.154961
    C   C66  0.819426  0.302056  0.327484  -0.044948
    C   C67  0.416745  0.634533  0.735950  0.210647
    C   C68  0.441041  0.653975  0.683310  -0.112605
    H   H25  0.175207  0.693812  0.651494  0.123365
    H   H26  0.295314  0.614876  0.800252  0.156430
    H   H27  0.527574  0.654114  0.666427  0.014186
    C   C69  0.219530  0.653522  0.729516  -0.158577
    C   C70  0.356131  0.675651  0.652136  -0.034260
    C   C71  0.243153  0.676335  0.675308  -0.052207
    Br  Br9  0.532123  0.612919  0.778269  -0.152066
    C   C72  0.308606  0.632686  0.758644  -0.126063
