# Generated by REPEAT Assigner based on pymatgen
data_DB15-cdl_N29_E72_opt
_audit_creation_date              2022-05-24
_audit_creation_method            REPEAT_Assigner
_cell_length_a                    10.964558
_cell_length_b                    10.831687
_cell_length_c                    41.854454
_cell_angle_alpha                 91.297685
_cell_angle_beta                  91.257603
_cell_angle_gamma                 89.923501
_cell_volume                      4968.356325
_symmetry_space_group_name_H-M    P1
_symmetry_Int_Tables_number       1
loop_
    _symmetry_equiv_pos_site_id
    _symmetry_equiv_pos_as_xyz
    1  x,y,z
loop_
    _atom_site_type_symbol
    _atom_site_label
    _atom_site_fract_x
    _atom_site_fract_y
    _atom_site_fract_z
    _atom_type_partial_charge
    Cl  Cl1  0.736470  0.148362  0.133373  -0.359348
    C   C1   0.108605  0.381859  0.125310  0.805872
    Mn  Mn1  0.943541  0.134671  0.121462  1.259490
    O   O1   0.008340  0.316943  0.124981  -0.587605
    O   O2   0.150116  0.168690  0.068232  -0.716184
    O   O3   0.238924  0.117367  0.163141  -0.633949
    O   O4   0.032272  0.096048  0.165477  -0.724662
    Cl  Cl2  0.446147  0.126211  0.101554  -0.375900
    Mn  Mn2  0.238817  0.139883  0.113107  1.291511
    C   C2   0.073252  0.893076  0.109839  0.813117
    C   C3   0.040795  0.173507  0.054870  0.802815
    O   O5   0.214849  0.329116  0.121675  -0.617913
    O   O6   0.966731  0.946557  0.111946  -0.593442
    O   O7   0.174635  0.956648  0.110662  -0.678839
    O   O8   0.942896  0.158585  0.071771  -0.630878
    C   C4   0.140680  0.093223  0.179215  0.787387
    Cl  Cl3  0.880901  0.559229  0.638207  -0.422091
    C   C5   0.922748  0.823475  0.547106  0.751497
    Mn  Mn3  0.890037  0.764585  0.622063  1.291717
    O   O9   0.924685  0.753592  0.572298  -0.664598
    O   O10  0.063968  0.988386  0.601550  -0.583535
    O   O11  0.693645  0.006479  0.590941  -0.600207
    O   O12  0.706823  0.814689  0.612115  -0.671745
    Cl  Cl4  0.891900  0.246362  0.576574  -0.382599
    Mn  Mn4  0.881517  0.041752  0.593135  1.258582
    C   C6   0.860353  0.985207  0.668362  0.876309
    C   C7   0.129754  0.901140  0.614478  0.823752
    O   O13  0.898539  0.941746  0.549852  -0.662170
    O   O14  0.868882  0.864474  0.665609  -0.680748
    O   O15  0.864132  0.054933  0.643265  -0.660921
    O   O16  0.077881  0.803711  0.626330  -0.628383
    C   C8   0.641821  0.905854  0.600757  0.774240
    Cl  Cl5  0.276116  0.180235  0.838226  -0.380376
    C   C9   0.862931  0.174428  0.794828  0.832832
    Mn  Mn5  0.070023  0.198634  0.851075  1.265276
    O   O17  0.974036  0.187143  0.806654  -0.703533
    O   O18  0.835640  0.377177  0.855833  -0.628484
    O   O19  0.804783  0.007564  0.865357  -0.610270
    O   O20  0.010644  0.017220  0.858223  -0.673817
    Cl  Cl6  0.570304  0.216310  0.876464  -0.369751
    Mn  Mn6  0.776391  0.196969  0.863660  1.270874
    C   C10  0.983992  0.215016  0.920157  0.865530
    C   C11  0.933944  0.441140  0.851019  0.835437
    O   O21  0.768514  0.171213  0.813518  -0.631619
    O   O22  0.077974  0.217360  0.901321  -0.577375
    O   O23  0.872738  0.206014  0.908134  -0.740391
    O   O24  0.041062  0.388703  0.849532  -0.627106
    C   C12  0.911225  0.954467  0.862964  0.820405
    Cl  Cl7  0.163853  0.492660  0.343204  -0.362437
    C   C13  0.137180  0.800543  0.428728  0.800055
    Mn  Mn7  0.152595  0.704666  0.355079  1.266826
    O   O25  0.130517  0.717767  0.405384  -0.659060
    O   O26  0.979336  0.937027  0.371860  -0.701286
    O   O27  0.351145  0.962168  0.378881  -0.620872
    O   O28  0.335215  0.762274  0.361415  -0.618989
    Cl  Cl8  0.152087  0.207041  0.389530  -0.366977
    Mn  Mn8  0.162958  0.995297  0.377461  1.279649
    C   C14  0.171552  0.901088  0.303746  0.872946
    C   C15  0.914198  0.841262  0.362265  0.838903
    O   O29  0.156659  0.917245  0.422899  -0.627957
    O   O30  0.158648  0.782954  0.309297  -0.666471
    O   O31  0.175791  0.983040  0.327198  -0.674151
    O   O32  0.965402  0.738020  0.352897  -0.601065
    C   C16  0.401796  0.857347  0.370467  0.831130
    C   C17  0.200280  0.579354  0.114066  -0.054415
    N   N1   0.886590  0.512971  0.140740  -0.776016
    H   H1   0.286587  0.534219  0.109911  0.143754
    H   H2   0.270005  0.752255  0.100758  0.124452
    H   H3   0.862083  0.558184  0.161946  0.304757
    H   H4   0.815068  0.522534  0.124094  0.329222
    H   H5   0.895017  0.744280  0.126884  0.115264
    C   C18  0.100028  0.514865  0.123966  -0.259233
    C   C19  0.990077  0.574971  0.128799  0.549279
    C   C20  0.980592  0.697899  0.122572  -0.289272
    C   C21  0.080413  0.761147  0.112251  -0.035092
    C   C22  0.190650  0.702745  0.108387  -0.139521
    C   C23  0.329083  0.800200  0.618173  -0.107658
    N   N2   0.256740  0.123636  0.597057  -0.711331
    H   H6   0.285525  0.716910  0.625880  0.150428
    H   H7   0.503514  0.715437  0.618564  0.121587
    H   H8   0.269892  0.148550  0.573427  0.294554
    H   H9   0.296475  0.191287  0.612082  0.314012
    H   H10  0.488191  0.091597  0.589785  0.128499
    C   C24  0.262235  0.905821  0.612315  -0.214335
    C   C25  0.320801  0.011001  0.602135  0.489657
    C   C26  0.444042  0.008412  0.597350  -0.302402
    C   C27  0.510068  0.902642  0.603005  -0.005140
    C   C28  0.452748  0.798712  0.613658  -0.105347
    C   C29  0.032927  0.639691  0.856950  -0.089451
    N   N3   0.703863  0.568585  0.843534  -0.710798
    H   H11  0.120872  0.594799  0.858248  0.151627
    H   H12  0.111816  0.815603  0.865287  0.110544
    H   H13  0.645285  0.584973  0.862506  0.298924
    H   H14  0.664606  0.606596  0.823035  0.297577
    H   H15  0.722872  0.803820  0.854054  0.140084
    C   C30  0.926527  0.573781  0.851935  -0.238895
    C   C31  0.814687  0.633172  0.850608  0.528004
    C   C32  0.810265  0.757843  0.855503  -0.306219
    C   C33  0.916547  0.822651  0.860973  -0.049046
    C   C34  0.027970  0.764661  0.861319  -0.088919
    C   C35  0.601139  0.955934  0.375318  -0.053963
    N   N4   0.527773  0.628261  0.354897  -0.690390
    H   H16  0.557739  0.042101  0.381917  0.144678
    H   H17  0.776480  0.037822  0.377684  0.122998
    H   H18  0.546392  0.597581  0.331681  0.294592
    H   H19  0.562368  0.563355  0.370794  0.302330
    H   H20  0.761036  0.653971  0.351457  0.129071
    C   C36  0.533997  0.849841  0.369188  -0.276505
    C   C37  0.592636  0.740723  0.360687  0.546662
    C   C38  0.716722  0.739799  0.357945  -0.318549
    C   C39  0.782871  0.846050  0.363877  -0.023257
    C   C40  0.725448  0.954007  0.372764  -0.127058
    C   C41  0.900431  0.202761  0.973753  0.085617
    N   N5   0.224286  0.234093  0.951454  -0.644599
    H   H21  0.809568  0.199248  0.963269  0.086661
    H   H22  0.832201  0.180225  0.020171  0.160120
    H   H23  0.269025  0.313360  0.960179  0.284963
    H   H24  0.280732  0.158223  0.955682  0.293688
    H   H25  0.219342  0.209815  0.013119  0.094315
    C   C42  0.001852  0.214546  0.955004  -0.331257
    C   C43  0.117019  0.219290  0.969566  0.494079
    C   C44  0.129097  0.207950  0.002209  -0.228485
    C   C45  0.027577  0.192198  0.020562  -0.019136
    C   C46  0.913135  0.191696  0.006278  -0.217680
    C   C47  0.995010  0.705533  0.465478  0.010828
    N   N6   0.269537  0.896297  0.482339  -0.779334
    H   H26  0.948884  0.659881  0.445419  0.119666
    H   H27  0.848950  0.672695  0.497291  0.153783
    H   H28  0.254756  0.989203  0.488252  0.326347
    H   H29  0.333215  0.861289  0.498698  0.279748
    H   H30  0.141435  0.894449  0.534545  0.176779
    C   C48  0.101839  0.770267  0.460952  -0.243756
    C   C49  0.157721  0.832268  0.486360  0.609184
    C   C50  0.101563  0.838837  0.515260  -0.482213
    C   C51  0.989508  0.784752  0.519004  0.218349
    C   C52  0.937964  0.713461  0.494598  -0.284450
    C   C53  0.251172  0.034238  0.262351  -0.006810
    N   N7   0.991321  0.816750  0.259117  -0.729410
    H   H31  0.321395  0.066224  0.279070  0.112993
    H   H32  0.309576  0.150643  0.225172  0.159595
    H   H33  0.994612  0.742711  0.242744  0.297000
    H   H34  0.905260  0.857597  0.257149  0.274669
    H   H35  0.996823  0.926356  0.204030  0.146978
    C   C54  0.169604  0.944700  0.271116  -0.277325
    C   C55  0.078920  0.905417  0.249941  0.575044
    C   C56  0.068834  0.957180  0.220350  -0.364692
    C   C57  0.151485  0.045076  0.211328  0.083971
    C   C58  0.244420  0.081935  0.232094  -0.224371
    C   C59  0.769734  0.999617  0.721346  -0.073179
    N   N8   0.017072  0.182658  0.687021  -0.786669
    H   H36  0.708862  0.924761  0.714451  0.133735
    H   H37  0.704167  0.012472  0.768742  0.151519
    H   H38  0.103622  0.169231  0.697264  0.298804
    H   H39  0.003196  0.277468  0.684757  0.335932
    H   H40  0.995491  0.255387  0.747039  0.128726
    C   C60  0.851939  0.043384  0.699907  -0.226442
    C   C61  0.929843  0.138881  0.708777  0.578379
    C   C62  0.929685  0.185661  0.739603  -0.350341
    C   C63  0.848289  0.141111  0.761130  0.018487
    C   C64  0.765937  0.050398  0.751753  -0.178000
