# Generated by REPEAT Assigner based on pymatgen
data_DB15-pcu_N139_E111_opt
_audit_creation_date              2022-05-24
_audit_creation_method            REPEAT_Assigner
_cell_length_a                    15.990427
_cell_length_b                    13.025030
_cell_length_c                    17.105358
_cell_angle_alpha                 112.595382
_cell_angle_beta                  74.779377
_cell_angle_gamma                 123.621567
_cell_volume                      2733.182651
_symmetry_space_group_name_H-M    P1
_symmetry_Int_Tables_number       1
loop_
    _symmetry_equiv_pos_site_id
    _symmetry_equiv_pos_as_xyz
    1  x,y,z
loop_
    _atom_site_type_symbol
    _atom_site_label
    _atom_site_fract_x
    _atom_site_fract_y
    _atom_site_fract_z
    _atom_type_partial_charge
    C   C1   0.024707  0.008790  0.750350  0.797390
    Sm  Sm1  0.842229  0.920189  0.122100  1.604194
    Sm  Sm2  0.157973  0.080026  0.878129  1.521344
    C   C2   0.995752  0.805246  0.960134  1.784479
    C   C3   0.291940  0.099427  0.975518  1.651599
    O   O1   0.003264  0.073916  0.209257  -0.438114
    O   O2   0.898192  0.874745  0.225271  -0.592990
    O   O3   0.066589  0.171381  0.978111  -0.659188
    O   O4   0.938309  0.115926  0.084344  -0.632000
    O   O5   0.778931  0.873829  0.984125  -0.494128
    O   O6   0.695904  0.926908  0.107363  -0.612951
    O   O7   0.996953  0.926295  0.790953  -0.531784
    O   O8   0.102031  0.125466  0.774940  -0.628229
    O   O9   0.933602  0.828822  0.022108  -0.818045
    O   O10  0.061883  0.884277  0.915872  -0.750645
    O   O11  0.221279  0.126394  0.016154  -0.828101
    O   O12  0.304291  0.073308  0.892901  -0.903314
    C   C4   0.975518  0.991421  0.249858  0.655596
    C   C5   0.004435  0.194956  0.040081  1.009516
    C   C6   0.708263  0.900788  0.024748  0.645990
    H   H1   0.102697  0.119642  0.333135  -0.221782
    H   H2   0.908248  0.894268  0.380800  -0.123320
    H   H3   0.103239  0.025004  0.453277  -0.184554
    H   H4   0.058599  0.137771  0.492755  -0.159604
    H   H5   0.897535  0.880568  0.667066  -0.166324
    H   H6   0.091987  0.105944  0.619406  -0.104839
    H   H7   0.896998  0.975205  0.546924  -0.184170
    H   H8   0.941640  0.862440  0.507447  -0.170152
    C   C7   0.029273  0.032518  0.324024  0.192523
    C   C8   0.984288  0.976498  0.386202  -0.092752
    C   C9   0.035466  0.034068  0.467013  0.410379
    C   C10  0.970959  0.967692  0.676179  0.080474
    C   C11  0.015948  0.023712  0.614002  -0.096245
    C   C12  0.964772  0.966143  0.533189  0.473368
    H   H9   0.348838  0.126705  0.090918  -0.309436
    H   H10  0.419415  0.010982  0.912705  -0.010274
    H   H11  0.526822  0.131250  0.067942  -0.207211
    H   H12  0.418777  0.976099  0.073703  -0.200635
    H   H13  0.651376  0.873503  0.909338  -0.213461
    H   H14  0.580784  0.989222  0.087545  -0.025712
    H   H15  0.473385  0.868953  0.932304  -0.216641
    H   H16  0.581431  0.024105  0.926544  -0.188278
    C   C13  0.355095  0.095632  0.022132  0.161267
    C   C14  0.414628  0.046271  0.981397  -0.426000
    C   C15  0.472110  0.033753  0.030256  0.625179
    C   C16  0.645113  0.904577  0.978124  0.275440
    C   C17  0.585576  0.953934  0.018853  -0.266210
    C   C18  0.528097  0.966450  0.969990  0.467935
    H   H17  0.019289  0.647997  0.871371  -0.275768
    H   H18  0.962566  0.664772  0.058660  -0.111166
    H   H19  0.939515  0.430980  0.920860  -0.164089
    H   H20  0.073307  0.545456  0.926393  -0.155565
    H   H21  0.980890  0.352201  0.128839  -0.194642
    H   H22  0.037617  0.335423  0.941550  -0.036976
    H   H23  0.060662  0.569214  0.079349  -0.192895
    H   H24  0.926870  0.454735  0.073814  -0.146210
    C   C19  0.993833  0.683047  0.935907  -0.125083
    C   C20  0.979576  0.626034  0.992013  -0.290727
    C   C21  0.999139  0.516629  0.962572  0.536960
    C   C22  0.006348  0.317150  0.064304  0.067421
    C   C23  0.020604  0.374161  0.008196  -0.312186
    C   C24  0.001039  0.483563  0.037636  0.501347
