data_DB15-pcu_N108_E37_opt_repeat
_audit_creation_date              2024-02-23
_audit_creation_method            'Materials Studio'
_symmetry_space_group_name_H-M    'P1'
_symmetry_Int_Tables_number       1
_symmetry_cell_setting            triclinic
loop_
_symmetry_equiv_pos_as_xyz
  x,y,z
_cell_length_a                    13.4790
_cell_length_b                    13.2382
_cell_length_c                    13.2650
_cell_angle_alpha                 109.6958
_cell_angle_beta                  93.1918
_cell_angle_gamma                 114.6812
loop_
_atom_site_label
_atom_site_type_symbol
_atom_site_fract_x
_atom_site_fract_y
_atom_site_fract_z
_atom_site_U_iso_or_equiv
_atom_site_adp_type
_atom_site_occupancy
Zn1    Zn    0.73270   0.71883   0.79829   0.00000  Uiso   1.00
Zn2    Zn    0.21793   0.29915   0.23150   0.00000  Uiso   1.00
Zn3    Zn    0.99468   0.00214   0.00174   0.00000  Uiso   1.00
C1     C     0.96078   0.91993   0.65234   0.00000  Uiso   1.00
C2     C     0.95701   0.64810   0.94494   0.00000  Uiso   1.00
C3     C     0.66832   0.98565   0.00228   0.00000  Uiso   1.00
C4     C     0.01675   0.02601   0.33116   0.00000  Uiso   1.00
C5     C     0.02643   0.33554   0.00767   0.00000  Uiso   1.00
C6     C     0.35061   0.08839   0.04598   0.00000  Uiso   1.00
N1     N     0.63656   0.87755   0.92152   0.00000  Uiso   1.00
N2     N     0.86603   0.82882   0.64962   0.00000  Uiso   1.00
N3     N     0.86024   0.72215   0.89800   0.00000  Uiso   1.00
N4     N     0.01724   0.77007   0.99876   0.00000  Uiso   1.00
N5     N     0.72958   0.86706   0.91557   0.00000  Uiso   1.00
N6     N     0.95374   0.81421   0.96818   0.00000  Uiso   1.00
N7     N     0.86504   0.84488   0.75261   0.00000  Uiso   1.00
N8     N     0.95819   0.94249   0.81858   0.00000  Uiso   1.00
N9     N     0.81566   0.96456   0.98976   0.00000  Uiso   1.00
N10    N     0.02057   0.99223   0.75728   0.00000  Uiso   1.00
N11    N     0.86109   0.61937   0.88228   0.00000  Uiso   1.00
N12    N     0.77973   0.04153   0.04490   0.00000  Uiso   1.00
N13    N     0.35203   0.18449   0.12339   0.00000  Uiso   1.00
N14    N     0.09324   0.14044   0.35599   0.00000  Uiso   1.00
N15    N     0.09935   0.28456   0.11342   0.00000  Uiso   1.00
N16    N     0.98286   0.21417   0.95950   0.00000  Uiso   1.00
N17    N     0.24774   0.16537   0.11334   0.00000  Uiso   1.00
N18    N     0.02936   0.18448   0.02798   0.00000  Uiso   1.00
N19    N     0.09490   0.15267   0.26122   0.00000  Uiso   1.00
N20    N     0.02144   0.04983   0.18060   0.00000  Uiso   1.00
N21    N     0.18129   0.06033   0.02997   0.00000  Uiso   1.00
N22    N     0.97253   0.96817   0.22204   0.00000  Uiso   1.00
N23    N     0.09917   0.38000   0.10270   0.00000  Uiso   1.00
N24    N     0.24381   0.00844   0.98653   0.00000  Uiso   1.00
N25    N     0.95100   0.82225   0.46326   0.00000  Uiso   1.00
N26    N     0.95698   0.84565   0.37393   0.00000  Uiso   1.00
C7     C     0.00158   0.96627   0.40740   0.00000  Uiso   1.00
C8     C     0.02496   0.01701   0.52115   0.00000  Uiso   1.00
N27    N     0.99241   0.92380   0.55276   0.00000  Uiso   1.00
H1     H     0.05222   0.11047   0.57462   0.00000  Uiso   1.00
N28    N     0.63509   0.15318   0.10081   0.00000  Uiso   1.00
N29    N     0.55211   0.18148   0.11072   0.00000  Uiso   1.00
C9     C     0.45729   0.08382   0.04325   0.00000  Uiso   1.00
C10    C     0.48529   0.99304   0.99108   0.00000  Uiso   1.00
N30    N     0.59694   0.04041   0.02983   0.00000  Uiso   1.00
H2     H     0.43037   0.90135   0.93321   0.00000  Uiso   1.00
N31    N     0.95846   0.36767   0.85519   0.00000  Uiso   1.00
N32    N     0.94537   0.45349   0.83604   0.00000  Uiso   1.00
C11    C     0.98974   0.55323   0.93084   0.00000  Uiso   1.00
C12    C     0.02949   0.52502   0.00993   0.00000  Uiso   1.00
N33    N     0.00799   0.40865   0.95931   0.00000  Uiso   1.00
H3     H     0.06015   0.57876   0.09744   0.00000  Uiso   1.00
