# Generated by REPEAT Assigner based on pymatgen
data_DB15-kag_N37_E180_opt
_audit_creation_date              2022-05-24
_audit_creation_method            REPEAT_Assigner
_cell_length_a                    22.339950
_cell_length_b                    25.769517
_cell_length_c                    11.269083
_cell_angle_alpha                 93.271910
_cell_angle_beta                  91.782773
_cell_angle_gamma                 71.767788
_cell_volume                      6151.153886
_symmetry_space_group_name_H-M    P1
_symmetry_Int_Tables_number       1
loop_
    _symmetry_equiv_pos_site_id
    _symmetry_equiv_pos_as_xyz
    1  x,y,z
loop_
    _atom_site_type_symbol
    _atom_site_label
    _atom_site_fract_x
    _atom_site_fract_y
    _atom_site_fract_z
    _atom_type_partial_charge
    C   C1   0.410536  0.502317  0.010058  0.763838
    C   C2   0.637645  0.551173  0.048094  0.774017
    C   C3   0.506589  0.713903  0.016294  0.534327
    C   C4   0.552576  0.331657  0.017596  0.418750
    Nd  Nd1  0.481419  0.611680  0.037906  1.974368
    Nd  Nd2  0.573365  0.436528  0.022437  1.917082
    O   O1   0.546023  0.475106  0.219537  -0.633758
    O   O2   0.499979  0.567927  0.222492  -0.689964
    O   O3   0.554015  0.471531  0.823556  -0.689377
    O   O4   0.508427  0.563179  0.854106  -0.692498
    O   O5   0.460551  0.458629  0.006534  -0.527827
    O   O6   0.417038  0.551384  0.019392  -0.773779
    O   O7   0.616455  0.509039  0.038524  -0.760092
    O   O8   0.596646  0.600241  0.062198  -0.555505
    O   O9   0.491038  0.700116  0.117902  -0.575107
    O   O10  0.511975  0.680799  0.921676  -0.594191
    O   O11  0.548781  0.358993  0.119869  -0.560900
    O   O12  0.564830  0.352490  0.921535  -0.537309
    C   C5   0.520229  0.522093  0.277307  0.785899
    C   C6   0.531111  0.520239  0.781630  0.759586
    C   C7   0.522382  0.123054  0.031855  0.768448
    C   C8   0.582935  0.903898  0.038451  0.650561
    C   C9   0.770239  0.914084  0.991361  0.403166
    C   C10  0.324716  0.106621  0.046575  0.472895
    Nd  Nd3  0.651369  0.997021  0.040091  1.817372
    Nd  Nd4  0.447521  0.025319  0.038679  1.688914
    O   O13  0.493499  0.027281  0.233585  -0.622904
    O   O14  0.601176  0.007403  0.229409  -0.673662
    O   O15  0.487785  0.018051  0.836781  -0.619631
    O   O16  0.593676  0.001223  0.860451  -0.652895
    O   O17  0.470722  0.109092  0.029288  -0.564607
    O   O18  0.578337  0.086846  0.034901  -0.707042
    O   O19  0.537273  0.950005  0.039470  -0.709010
    O   O20  0.641088  0.904422  0.051253  -0.491096
    O   O21  0.757843  0.938379  0.096964  -0.630249
    O   O22  0.728094  0.927543  0.905711  -0.438159
    O   O23  0.356977  0.096864  0.146379  -0.504078
    O   O24  0.347961  0.078137  0.949508  -0.628088
    C   C11  0.548235  0.019296  0.288213  0.819713
    C   C12  0.543952  0.007118  0.791047  0.741864
    C   C13  0.902456  0.533944  0.000689  0.574579
    C   C14  0.164384  0.471839  0.962082  0.620905
    C   C15  0.138535  0.312446  0.999939  0.412933
    C   C16  0.947857  0.704563  0.980911  0.485028
    Nd  Nd5  0.046534  0.418624  0.971310  1.887145
    Nd  Nd6  0.024411  0.591457  0.984134  1.832242
    O   O25  0.019285  0.553364  0.787048  -0.660407
    O   O26  0.035348  0.461222  0.784773  -0.604299
    O   O27  0.030766  0.557953  0.184412  -0.637972
    O   O28  0.045509  0.466921  0.154608  -0.679869
    O   O29  0.923253  0.576435  0.997449  -0.503204
    O   O30  0.942473  0.484207  0.991515  -0.714358
    O   O31  0.114637  0.515237  0.970127  -0.733629
    O   O32  0.156478  0.423302  0.952095  -0.405721
    O   O33  0.108875  0.325531  0.898929  -0.587139
    O   O34  0.124411  0.346895  0.092689  -0.577431
    O   O35  0.954965  0.675063  0.881192  -0.598101
    O   O36  0.968379  0.680382  0.079755  -0.489700
    C   C17  0.024559  0.506671  0.729101  0.765489
    C   C18  0.041218  0.509551  0.226881  0.762218
    C   C19  0.526263  0.524191  0.652513  -0.104511
    O   O37  0.591939  0.600096  0.741406  -0.455853
    O   O38  0.544720  0.658856  0.605797  -0.565660
    C   C20  0.535569  0.566845  0.593283  -0.007254
    C   C21  0.557715  0.609782  0.653667  0.623492
    C   C22  0.529347  0.566593  0.470907  -0.088489
    H   H1   0.560851  0.686548  0.643101  0.407224
    H   H2   0.539565  0.598083  0.423638  0.102163
    H   H3   0.479398  0.362615  0.417611  0.436815
    H   H4   0.501842  0.450630  0.635234  0.139696
    O   O39  0.450811  0.448160  0.316105  -0.459074
    O   O40  0.495275  0.390397  0.455251  -0.606142
    C   C23  0.516428  0.523911  0.406888  -0.066175
    C   C24  0.483523  0.439027  0.405907  0.630061
    C   C25  0.505345  0.482196  0.466456  -0.009223
    C   C26  0.511421  0.482523  0.588376  -0.077465
    C   C27  0.549840  0.017081  0.418144  -0.164229
    O   O41  0.618148  0.091836  0.363620  -0.512628
    O   O42  0.686184  0.062721  0.511023  -0.561232
    C   C28  0.591820  0.034211  0.492315  0.057677
    C   C29  0.633277  0.063579  0.449467  0.609970
    C   C30  0.591632  0.027262  0.613258  -0.065572
    H   H5   0.712618  0.083120  0.485068  0.420797
    H   H6   0.621533  0.043119  0.672242  0.097765
    H   H7   0.462999  0.900939  0.745687  0.383964
    H   H8   0.479049  0.977680  0.408250  0.107862
    O   O43  0.421189  0.955985  0.575335  -0.530007
    O   O44  0.488655  0.922270  0.720918  -0.567321
    C   C31  0.549828  0.004759  0.661428  -0.086788
    C   C32  0.469655  0.955149  0.629162  0.683508
    C   C33  0.509598  0.986012  0.586693  -0.016757
    C   C34  0.509292  0.993432  0.466587  -0.068689
    C   C35  0.027456  0.505139  0.599210  -0.114658
    O   O45  0.936902  0.450137  0.653385  -0.511828
    O   O46  0.967919  0.390880  0.500195  -0.565001
    C   C36  0.005911  0.469992  0.523502  0.011295
    C   C37  0.969413  0.435970  0.565177  0.602158
    C   C38  0.014751  0.469771  0.402413  -0.024984
    H   H9   0.942629  0.369319  0.525419  0.426296
    H   H10  0.995227  0.444882  0.342333  0.079855
    H   H11  0.131497  0.637691  0.429377  0.453382
    H   H12  0.076657  0.563953  0.611387  0.106915
    O   O47  0.138416  0.555417  0.305420  -0.492216
    O   O48  0.105238  0.616893  0.454127  -0.623821
    C   C39  0.043167  0.504514  0.355860  -0.113288
    C   C40  0.104201  0.571201  0.391018  0.655396
    C   C41  0.066330  0.538215  0.432035  -0.015645
    C   C42  0.057112  0.538765  0.552231  -0.025770
    C   C43  0.706596  0.544891  0.043403  -0.158999
    O   O49  0.714462  0.431978  0.113316  -0.583975
    O   O50  0.770637  0.401050  0.950817  -0.627033
    C   C44  0.754067  0.494716  0.027578  0.061168
    C   C45  0.742826  0.441598  0.030886  0.697486
    C   C46  0.815903  0.493336  0.010970  -0.156292
    H   H13  0.765625  0.365345  0.955840  0.449605
    H   H14  0.850872  0.453784  0.996859  0.127042
    H   H15  0.860513  0.617874  0.201622  0.338560
    H   H16  0.689883  0.631335  0.064573  0.114943
    O   O51  0.771924  0.681520  0.007207  -0.386793
    O   O52  0.840942  0.647660  0.150769  -0.493293
    C   C47  0.834197  0.540202  0.017479  0.113306
    C   C48  0.801388  0.641821  0.061932  0.626360
    C   C49  0.787467  0.590017  0.041190  -0.206867
    C   C50  0.724839  0.591833  0.049309  -0.025843
    C   C51  0.520499  0.179327  0.020415  -0.111304
    O   O53  0.450448  0.173440  0.230524  -0.474225
    O   O54  0.400266  0.262309  0.232826  -0.624281
    C   C52  0.486885  0.222611  0.095346  0.018003
    C   C53  0.444283  0.217338  0.188295  0.658944
    C   C54  0.497159  0.272400  0.088329  -0.166877
    H   H17  0.373228  0.259316  0.295592  0.444879
    H   H18  0.472231  0.306439  0.146913  0.168954
    H   H19  0.672142  0.206513  0.709334  0.438808
    H   H20  0.588914  0.152390  0.884682  0.112457
    O   O55  0.662429  0.261923  0.894597  -0.573870
    O   O56  0.636891  0.207129  0.757521  -0.608149
    C   C55  0.541371  0.278913  0.012330  0.134541
    C   C56  0.625907  0.237404  0.860617  0.738144
    C   C57  0.574167  0.235718  0.936735  -0.076252
    C   C58  0.562089  0.186839  0.940351  -0.109754
    C   C59  0.826952  0.866789  0.977043  0.146161
    O   O57  0.808924  0.901815  0.730768  -0.583688
    O   O58  0.806011  0.819387  0.669337  -0.604683
    C   C60  0.841208  0.835029  0.871688  -0.127306
    C   C61  0.815796  0.854715  0.754682  0.772567
    C   C62  0.881882  0.782571  0.875789  -0.091038
    H   H21  0.791546  0.831897  0.591205  0.423366
    H   H22  0.889856  0.756893  0.795062  0.138482
    H   H23  0.947466  0.796978  0.366038  0.424132
    H   H24  0.854851  0.874953  0.158934  0.150863
    O   O59  0.002290  0.761432  0.180506  -0.578682
    O   O60  0.921052  0.803890  0.295494  -0.584437
    C   C63  0.912208  0.762844  0.980426  0.059718
    C   C64  0.945841  0.784946  0.188156  0.740786
    C   C65  0.906378  0.798270  0.080197  -0.112848
    C   C66  0.862040  0.849094  0.078480  -0.118900
    C   C67  0.346854  0.495233  0.000455  -0.171319
    O   O61  0.342529  0.569600  0.207906  -0.486652
    O   O62  0.246518  0.620373  0.156208  -0.679410
    C   C68  0.293644  0.531032  0.055722  0.132232
    C   C69  0.296841  0.575258  0.142018  0.641371
    C   C70  0.235389  0.522967  0.036805  -0.228389
    H   H25  0.247661  0.648633  0.215541  0.459382
    H   H26  0.195017  0.550034  0.083027  0.190279
    H   H27  0.326574  0.328883  0.741759  0.415966
    H   H28  0.380052  0.424759  0.883739  0.094348
    O   O63  0.230481  0.406597  0.759856  -0.517750
    O   O64  0.328048  0.356226  0.803110  -0.577412
    C   C71  0.228092  0.479092  0.967561  -0.006375
    C   C72  0.277266  0.400454  0.822951  0.662050
    C   C73  0.281145  0.443659  0.911149  -0.071977
    C   C74  0.339572  0.451605  0.930197  -0.013642
    C   C75  0.522262  0.764508  0.012409  -0.005469
    O   O65  0.393574  0.794039  0.097211  -0.565994
    O   O66  0.413193  0.851097  0.236205  -0.569534
    C   C76  0.490290  0.810698  0.081075  -0.004516
    C   C77  0.430255  0.816725  0.139868  0.675435
    C   C78  0.513530  0.854179  0.090156  -0.139440
    H   H29  0.373037  0.856365  0.272741  0.436470
    H   H30  0.489152  0.890176  0.144098  0.081874
    H   H31  0.718958  0.758465  0.776410  0.449028
    H   H32  0.598012  0.727918  0.894510  0.153857
    O   O67  0.652123  0.849779  0.837263  -0.475401
    O   O68  0.686480  0.759344  0.831815  -0.630625
    C   C79  0.566225  0.853542  0.028989  -0.019064
    C   C80  0.647433  0.807631  0.873782  0.671062
    C   C81  0.596046  0.808685  0.953912  -0.073645
    C   C82  0.574300  0.763968  0.948913  -0.041320
    C   C83  0.185054  0.258391  0.010303  0.158832
    O   O69  0.215603  0.297043  0.783949  -0.438198
    O   O70  0.218483  0.217275  0.695729  -0.610398
    C   C84  0.216789  0.228362  0.912090  -0.086941
    C   C85  0.214773  0.250430  0.793860  0.685465
    C   C86  0.257132  0.176643  0.926359  -0.197935
    H   H33  0.219495  0.231097  0.618169  0.427593
    H   H34  0.284229  0.155569  0.850548  0.179161
    H   H35  0.250502  0.090836  0.336521  0.462121
    H   H36  0.167120  0.257782  0.194747  0.156481
    O   O71  0.227431  0.189850  0.340797  -0.523631
    O   O72  0.250020  0.105724  0.259615  -0.663148
    C   C87  0.268994  0.154686  0.036708  0.150368
    C   C88  0.239110  0.159840  0.251197  0.706783
    C   C89  0.235308  0.183447  0.134186  -0.080885
    C   C90  0.194214  0.235431  0.119931  -0.168769
