data_DB15-cds_N128_E88_opt_repeat
_audit_creation_date              2024-02-20
_audit_creation_method            'Materials Studio'
_symmetry_space_group_name_H-M    'P1'
_symmetry_Int_Tables_number       1
_symmetry_cell_setting            triclinic
loop_
_symmetry_equiv_pos_as_xyz
  x,y,z
_cell_length_a                    11.8783
_cell_length_b                    11.7322
_cell_length_c                    23.1995
_cell_angle_alpha                 91.0062
_cell_angle_beta                  91.0028
_cell_angle_gamma                 89.9881
loop_
_atom_site_label
_atom_site_type_symbol
_atom_site_fract_x
_atom_site_fract_y
_atom_site_fract_z
_atom_site_U_iso_or_equiv
_atom_site_adp_type
_atom_site_occupancy
C1     C     0.69811   0.96890   0.00240   0.00000  Uiso   1.00
C2     C     0.75272   0.96984   0.94905   0.00000  Uiso   1.00
C3     C     0.69667   0.95628   0.89676   0.00000  Uiso   1.00
C4     C     0.77674   0.95391   0.85510   0.00000  Uiso   1.00
C5     C     0.88020   0.96440   0.88301   0.00000  Uiso   1.00
C6     C     0.98559   0.06364   0.14702   0.00000  Uiso   1.00
H1     H     0.21003   0.93664   0.81290   0.00000  Uiso   1.00
H2     H     0.36122   0.94071   0.89393   0.00000  Uiso   1.00
H3     H     0.36189   0.01977   0.11821   0.00000  Uiso   1.00
H4     H     0.20984   0.06946   0.19353   0.00000  Uiso   1.00
N1     N     0.10437   0.97783   0.94178   0.00000  Uiso   1.00
N2     N     0.10422   0.01794   0.06343   0.00000  Uiso   1.00
N3     N     0.86558   0.01587   0.06245   0.00000  Uiso   1.00
N4     N     0.86547   0.97820   0.94068   0.00000  Uiso   1.00
H5     H     0.76269   0.05281   0.19219   0.00000  Uiso   1.00
H6     H     0.61053   0.00204   0.11503   0.00000  Uiso   1.00
H7     H     0.60706   0.94964   0.88860   0.00000  Uiso   1.00
H8     H     0.75839   0.94476   0.80949   0.00000  Uiso   1.00
Pd1    Pd    0.98497   0.99772   0.00120   0.00000  Uiso   1.00
C7     C     0.08850   0.96203   0.88414   0.00000  Uiso   1.00
C8     C     0.19153   0.94814   0.85795   0.00000  Uiso   1.00
C9     C     0.27206   0.95060   0.90080   0.00000  Uiso   1.00
C10    C     0.21691   0.96850   0.95200   0.00000  Uiso   1.00
C11    C     0.27195   0.97131   0.00612   0.00000  Uiso   1.00
C12    C     0.21684   0.00314   0.05709   0.00000  Uiso   1.00
C13    C     0.27246   0.02294   0.10907   0.00000  Uiso   1.00
C14    C     0.19225   0.05104   0.14852   0.00000  Uiso   1.00
C15    C     0.08932   0.04620   0.11981   0.00000  Uiso   1.00
C16    C     0.98388   0.95243   0.85487   0.00000  Uiso   1.00
C17    C     0.88152   0.04186   0.11917   0.00000  Uiso   1.00
C18    C     0.77959   0.03961   0.14704   0.00000  Uiso   1.00
C19    C     0.69912   0.01082   0.10642   0.00000  Uiso   1.00
C20    C     0.75351   0.99762   0.05462   0.00000  Uiso   1.00
C21    C     0.03004   0.00212   0.64784   0.00000  Uiso   1.00
C22    C     0.01127   0.10835   0.62217   0.00000  Uiso   1.00
C23    C     0.00197   0.20874   0.65358   0.00000  Uiso   1.00
C24    C     0.99282   0.29456   0.61488   0.00000  Uiso   1.00
C25    C     0.99683   0.24492   0.56031   0.00000  Uiso   1.00
C26    C     0.05837   0.72320   0.49138   0.00000  Uiso   1.00
H9     H     0.92123   0.39678   0.39815   0.00000  Uiso   1.00
H10    H     0.91396   0.24708   0.31764   0.00000  Uiso   1.00
H11    H     0.99940   0.80266   0.30213   0.00000  Uiso   1.00
H12    H     0.05306   0.64598   0.37435   0.00000  Uiso   1.00
N5     N     0.98233   0.13998   0.44368   0.00000  Uiso   1.00
N6     N     0.01133   0.89665   0.43673   0.00000  Uiso   1.00
N7     N     0.03097   0.88690   0.55790   0.00000  Uiso   1.00
N8     N     0.00452   0.12966   0.56477   0.00000  Uiso   1.00
H13    H     0.06633   0.62489   0.60328   0.00000  Uiso   1.00
H14    H     0.04915   0.77221   0.68616   0.00000  Uiso   1.00
H15    H     0.00011   0.22147   0.69976   0.00000  Uiso   1.00
H16    H     0.98211   0.38298   0.62741   0.00000  Uiso   1.00
Pd2    Pd    0.00810   0.01346   0.50073   0.00000  Uiso   1.00
C27    C     0.97589   0.25447   0.45467   0.00000  Uiso   1.00
C28    C     0.94349   0.30914   0.40469   0.00000  Uiso   1.00
C29    C     0.93528   0.22811   0.36184   0.00000  Uiso   1.00
C30    C     0.95895   0.12448   0.38655   0.00000  Uiso   1.00
C31    C     0.95871   0.02001   0.35552   0.00000  Uiso   1.00
C32    C     0.99136   0.91593   0.37996   0.00000  Uiso   1.00
C33    C     0.00659   0.81646   0.34817   0.00000  Uiso   1.00
C34    C     0.03634   0.73367   0.38627   0.00000  Uiso   1.00
C35    C     0.03683   0.78385   0.44055   0.00000  Uiso   1.00
C36    C     0.99425   0.30897   0.50922   0.00000  Uiso   1.00
C37    C     0.04773   0.77429   0.54629   0.00000  Uiso   1.00
C38    C     0.05665   0.71526   0.59713   0.00000  Uiso   1.00
C39    C     0.04750   0.79354   0.64110   0.00000  Uiso   1.00
C40    C     0.03420   0.89895   0.61617   0.00000  Uiso   1.00
C41    C     0.98597   0.11352   0.20796   0.00000  Uiso   1.00
C42    C     0.91433   0.01778   0.29355   0.00000  Uiso   1.00
H17    H     0.90902   0.16399   0.21537   0.00000  Uiso   1.00
H18    H     0.05342   0.17851   0.21220   0.00000  Uiso   1.00
N9     N     0.00562   0.02634   0.25182   0.00000  Uiso   1.00
H19    H     0.01466   0.94750   0.23088   0.00000  Uiso   1.00
H20    H     0.84830   0.08279   0.28773   0.00000  Uiso   1.00
H21    H     0.86744   0.93757   0.28480   0.00000  Uiso   1.00
H22    H     0.07999   0.04640   0.27440   0.00000  Uiso   1.00
C43    C     0.98224   0.90506   0.79324   0.00000  Uiso   1.00
C44    C     0.06645   0.00092   0.71114   0.00000  Uiso   1.00
H23    H     0.91161   0.84426   0.78724   0.00000  Uiso   1.00
H24    H     0.05479   0.84853   0.78571   0.00000  Uiso   1.00
N10    N     0.97023   0.99463   0.74999   0.00000  Uiso   1.00
H25    H     0.89765   0.97805   0.72523   0.00000  Uiso   1.00
H26    H     0.11624   0.07813   0.72244   0.00000  Uiso   1.00
H27    H     0.12879   0.93272   0.71810   0.00000  Uiso   1.00
H28    H     0.96176   0.07305   0.77142   0.00000  Uiso   1.00
C45    C     0.58423   0.90945   0.00531   0.00000  Uiso   1.00
C46    C     0.38582   0.91200   0.01152   0.00000  Uiso   1.00
H29    H     0.58267   0.85827   0.04497   0.00000  Uiso   1.00
H30    H     0.57708   0.84492   0.97003   0.00000  Uiso   1.00
N11    N     0.48511   0.98485   0.00354   0.00000  Uiso   1.00
H31    H     0.49041   0.04571   0.03676   0.00000  Uiso   1.00
H32    H     0.38760   0.83962   0.98023   0.00000  Uiso   1.00
H33    H     0.39249   0.87079   0.05402   0.00000  Uiso   1.00
H34    H     0.48001   0.02465   0.96376   0.00000  Uiso   1.00
C47    C     0.11502   0.60623   0.48665   0.00000  Uiso   1.00
C48    C     0.00827   0.43935   0.51935   0.00000  Uiso   1.00
H35    H     0.16800   0.58811   0.52499   0.00000  Uiso   1.00
H36    H     0.17926   0.61229   0.45274   0.00000  Uiso   1.00
N12    N     0.03940   0.51044   0.47028   0.00000  Uiso   1.00
H37    H     0.96610   0.54442   0.45212   0.00000  Uiso   1.00
H38    H     0.07624   0.44837   0.55210   0.00000  Uiso   1.00
H39    H     0.92965   0.47403   0.53792   0.00000  Uiso   1.00
H40    H     0.08451   0.46148   0.44072   0.00000  Uiso   1.00
