data_DB15-pcu_N65_E147_opt_repeat
_audit_creation_date              2024-02-23
_audit_creation_method            'Materials Studio'
_symmetry_space_group_name_H-M    'P1'
_symmetry_Int_Tables_number       1
_symmetry_cell_setting            triclinic
loop_
_symmetry_equiv_pos_as_xyz
  x,y,z
_cell_length_a                    15.2362
_cell_length_b                    11.9194
_cell_length_c                    16.1993
_cell_angle_alpha                 112.2968
_cell_angle_beta                  74.1561
_cell_angle_gamma                 124.5031
loop_
_atom_site_label
_atom_site_type_symbol
_atom_site_fract_x
_atom_site_fract_y
_atom_site_fract_z
_atom_site_U_iso_or_equiv
_atom_site_adp_type
_atom_site_occupancy
O1     O     0.28605   0.96528   0.78455   0.00000  Uiso   1.00
La1    La    0.13239   0.00981   0.84541   0.00000  Uiso   1.00
O2     O     0.05648   0.83773   0.93282   0.00000  Uiso   1.00
O3     O     0.26725   0.04518   0.93570   0.00000  Uiso   1.00
C1     C     0.31759   0.00269   0.86295   0.00000  Uiso   1.00
O4     O     0.92893   0.82746   0.05106   0.00000  Uiso   1.00
La2    La    0.82345   0.93430   0.12604   0.00000  Uiso   1.00
C2     C     0.86443   0.91818   0.29565   0.00000  Uiso   1.00
C3     C     0.99344   0.78531   0.99902   0.00000  Uiso   1.00
C4     C     0.75479   0.99841   0.00468   0.00000  Uiso   1.00
O5     O     0.80766   0.80500   0.23310   0.00000  Uiso   1.00
O6     O     0.91476   0.04407   0.28279   0.00000  Uiso   1.00
C5     C     0.06563   0.23291   0.05427   0.00000  Uiso   1.00
O7     O     0.70633   0.98875   0.08385   0.00000  Uiso   1.00
O8     O     0.98110   0.16339   0.10479   0.00000  Uiso   1.00
O9     O     0.09880   0.17006   0.97768   0.00000  Uiso   1.00
O10    O     0.83221   0.97148   0.97497   0.00000  Uiso   1.00
C6     C     0.95888   0.97515   0.76142   0.00000  Uiso   1.00
O11    O     0.04048   0.09906   0.79540   0.00000  Uiso   1.00
O12    O     0.93778   0.86217   0.77849   0.00000  Uiso   1.00
H1     H     0.92268   0.17282   0.75582   0.00000  Uiso   1.00
H2     H     0.85678   0.75477   0.62658   0.00000  Uiso   1.00
C7     C     0.86470   0.98253   0.54056   0.00000  Uiso   1.00
C8     C     0.86679   0.90209   0.38050   0.00000  Uiso   1.00
C9     C     0.85116   0.77686   0.38247   0.00000  Uiso   1.00
C10    C     0.87326   0.00510   0.46018   0.00000  Uiso   1.00
C11    C     0.84754   0.75780   0.46262   0.00000  Uiso   1.00
H3     H     0.89014   0.18807   0.61765   0.00000  Uiso   1.00
H4     H     0.77891   0.04120   0.65832   0.00000  Uiso   1.00
H5     H     0.84421   0.69418   0.32102   0.00000  Uiso   1.00
H6     H     0.88003   0.10025   0.45990   0.00000  Uiso   1.00
H7     H     0.84018   0.66219   0.46278   0.00000  Uiso   1.00
C12    C     0.85518   0.86148   0.54191   0.00000  Uiso   1.00
C13    C     0.90417   0.96723   0.69554   0.00000  Uiso   1.00
C14    C     0.93253   0.10624   0.68849   0.00000  Uiso   1.00
C15    C     0.86416   0.85059   0.62633   0.00000  Uiso   1.00
C16    C     0.86200   0.08505   0.62733   0.00000  Uiso   1.00
H8     H     0.01696   0.16213   0.66169   0.00000  Uiso   1.00
H9     H     0.77483   0.24193   0.05697   0.00000  Uiso   1.00
H10    H     0.64526   0.84614   0.86118   0.00000  Uiso   1.00
C17    C     0.55491   0.07217   0.94400   0.00000  Uiso   1.00
C18    C     0.40835   0.99521   0.86778   0.00000  Uiso   1.00
C19    C     0.43371   0.90324   0.79883   0.00000  Uiso   1.00
C20    C     0.46913   0.07963   0.94038   0.00000  Uiso   1.00
C21    C     0.51642   0.89099   0.80454   0.00000  Uiso   1.00
H11    H     0.62370   0.26493   0.04913   0.00000  Uiso   1.00
H12    H     0.57954   0.10560   0.07656   0.00000  Uiso   1.00
H13    H     0.38617   0.83560   0.74174   0.00000  Uiso   1.00
H14    H     0.45025   0.15239   0.99430   0.00000  Uiso   1.00
H15    H     0.53230   0.81361   0.75270   0.00000  Uiso   1.00
C22    C     0.57738   0.97569   0.87708   0.00000  Uiso   1.00
C23    C     0.72181   0.04531   0.95433   0.00000  Uiso   1.00
C24    C     0.72918   0.18472   0.99681   0.00000  Uiso   1.00
C25    C     0.65566   0.95084   0.89024   0.00000  Uiso   1.00
C26    C     0.61826   0.16084   0.02359   0.00000  Uiso   1.00
H16    H     0.77050   0.24897   0.94864   0.00000  Uiso   1.00
H17    H     0.25070   0.44323   0.98635   0.00000  Uiso   1.00
H18    H     0.97807   0.37825   0.16505   0.00000  Uiso   1.00
C27    C     0.11090   0.60590   0.03614   0.00000  Uiso   1.00
C28    C     0.00553   0.69088   0.02624   0.00000  Uiso   1.00
C29    C     0.92928   0.62044   0.08677   0.00000  Uiso   1.00
C30    C     0.09722   0.68396   0.00106   0.00000  Uiso   1.00
C31    C     0.94333   0.54249   0.12081   0.00000  Uiso   1.00
H19    H     0.25623   0.63965   0.95550   0.00000  Uiso   1.00
H20    H     0.25794   0.66383   0.07242   0.00000  Uiso   1.00
H21    H     0.85682   0.62336   0.10721   0.00000  Uiso   1.00
H22    H     0.15944   0.74250   0.95642   0.00000  Uiso   1.00
H23    H     0.88148   0.48440   0.16584   0.00000  Uiso   1.00
C32    C     0.03365   0.53395   0.09456   0.00000  Uiso   1.00
C33    C     0.10109   0.38059   0.06552   0.00000  Uiso   1.00
C34    C     0.17748   0.44609   0.99318   0.00000  Uiso   1.00
C35    C     0.03994   0.43208   0.11807   0.00000  Uiso   1.00
C36    C     0.20897   0.59887   0.01387   0.00000  Uiso   1.00
H24    H     0.13918   0.38481   0.92889   0.00000  Uiso   1.00
