# Generated by REPEAT Assigner based on pymatgen
data_DB3-lvtb_sym_5_mc_2_sym_5_mc_2_L_12_FGB_2__
_audit_creation_date              2022-05-24
_audit_creation_method            REPEAT_Assigner
_cell_length_a                    29.609600
_cell_length_b                    29.928500
_cell_length_c                    8.177000
_cell_angle_alpha                 90.444000
_cell_angle_beta                  90.199200
_cell_angle_gamma                 90.080400
_cell_volume                      7245.950786
_symmetry_space_group_name_H-M    P1
_symmetry_Int_Tables_number       1
loop_
    _symmetry_equiv_pos_site_id
    _symmetry_equiv_pos_as_xyz
    1  x,y,z
loop_
    _atom_site_type_symbol
    _atom_site_label
    _atom_site_fract_x
    _atom_site_fract_y
    _atom_site_fract_z
    _atom_type_partial_charge
    O   O1    0.214530  0.293710  0.109240  -0.523224
    O   O2    0.299480  0.207400  0.191860  -0.486659
    O   O3    0.215340  0.206750  0.103620  -0.516334
    O   O4    0.298560  0.294220  0.203400  -0.539100
    O   O5    0.279390  0.291890  0.462780  -0.531030
    O   O6    0.194030  0.206900  0.360490  -0.517026
    O   O7    0.278650  0.204900  0.449270  -0.518120
    O   O8    0.195390  0.293520  0.368820  -0.489747
    Cu  Cu1   0.259170  0.250740  0.126530  0.906860
    Cu  Cu2   0.234720  0.249120  0.435930  0.908863
    C   C1    0.190220  0.308510  0.225310  0.536852
    C   C2    0.303650  0.191000  0.333820  0.559822
    C   C3    0.189800  0.191970  0.215770  0.616092
    C   C4    0.303500  0.308010  0.349720  0.671073
    O   O9    0.780550  0.207450  0.050180  -0.514749
    O   O10   0.696620  0.293660  0.153300  -0.521114
    O   O11   0.781230  0.294410  0.067570  -0.552937
    O   O12   0.695810  0.206900  0.136650  -0.502336
    O   O13   0.716260  0.202710  0.394310  -0.515438
    O   O14   0.799670  0.291920  0.327910  -0.507062
    O   O15   0.714980  0.289650  0.413590  -0.556786
    O   O16   0.800440  0.205080  0.309350  -0.517754
    Cu  Cu3   0.736460  0.250970  0.076390  0.915047
    Cu  Cu4   0.759940  0.247080  0.386770  0.912526
    C   C5    0.805070  0.191410  0.162970  0.634859
    C   C6    0.690890  0.306170  0.300210  0.637284
    C   C7    0.805270  0.308250  0.186830  0.622272
    C   C8    0.691270  0.189490  0.276600  0.555239
    O   O17   0.803500  0.705720  0.663230  -0.580981
    O   O18   0.721060  0.792720  0.554700  -0.575317
    O   O19   0.805540  0.792370  0.645070  -0.478749
    O   O20   0.719660  0.705840  0.569840  -0.364557
    O   O21   0.699380  0.709790  0.828510  -0.434924
    O   O22   0.784520  0.797350  0.901670  -0.570943
    O   O23   0.700510  0.796540  0.813350  -0.553111
    O   O24   0.783460  0.710460  0.921770  -0.566728
    Cu  Cu5   0.764610  0.748710  0.582550  0.866367
    Cu  Cu6   0.739840  0.753980  0.891880  0.963635
    C   C9    0.807590  0.693010  0.810440  0.701447
    C   C10   0.696840  0.809750  0.666980  0.655381
    C   C11   0.809910  0.810010  0.785670  0.661826
    C   C12   0.694720  0.693000  0.686300  0.409711
    O   O25   0.301890  0.794270  0.833960  -0.502387
    O   O26   0.216310  0.708830  0.928450  -0.566343
    O   O27   0.301350  0.707380  0.844760  -0.531640
    O   O28   0.217330  0.795960  0.918690  -0.589130
    O   O29   0.197640  0.792610  0.659960  -0.519495
    O   O30   0.282730  0.705760  0.583620  -0.562572
    O   O31   0.198250  0.705990  0.667540  -0.524629
    O   O32   0.282520  0.792480  0.574190  -0.523329
    Cu  Cu7   0.261250  0.751870  0.906970  0.962429
    Cu  Cu8   0.238190  0.748990  0.595890  0.922890
    C   C13   0.307200  0.807950  0.688930  0.591477
    C   C14   0.192320  0.692780  0.812760  0.659161
    C   C15   0.306840  0.691820  0.701260  0.652639
    C   C16   0.192540  0.809350  0.801540  0.652643
    O   O33   0.957830  0.969240  0.809300  -0.566480
    O   O34   0.045890  0.052050  0.909660  -0.510209
    O   O35   0.045890  0.968850  0.814950  -0.525092
    O   O36   0.958110  0.052910  0.898260  -0.496875
    O   O37   0.956980  0.033330  0.157780  -0.503918
    O   O38   0.044420  0.949120  0.074060  -0.542740
    O   O39   0.044350  0.032080  0.168610  -0.510416
    O   O40   0.956420  0.949730  0.068640  -0.555970
    Cu  Cu9   0.002140  0.012820  0.832420  0.929174
    Cu  Cu10  0.000320  0.988780  0.142750  0.919825
    C   C17   0.941730  0.945540  0.923520  0.682581
    C   C18   0.060230  0.056230  0.055450  0.556343
    C   C19   0.060450  0.944830  0.931100  0.669191
    C   C20   0.942880  0.057830  0.042230  0.623524
    O   O41   0.545090  0.446690  0.609600  -0.508702
    O   O42   0.457460  0.530080  0.706970  -0.561962
    O   O43   0.457130  0.446230  0.617430  -0.491974
    O   O44   0.545360  0.530140  0.702130  -0.544490
    O   O45   0.543730  0.549600  0.443650  -0.479876
    O   O46   0.455980  0.465770  0.357920  -0.414600
    O   O47   0.456030  0.549230  0.447980  -0.515002
    O   O48   0.543360  0.466400  0.350350  -0.475724
    Cu  Cu11  0.501430  0.486180  0.684540  0.955056
    Cu  Cu12  0.499590  0.509940  0.374590  0.834613
    C   C21   0.559230  0.442310  0.463990  0.547157
    C   C22   0.441650  0.554120  0.593120  0.634173
    C   C23   0.441810  0.441340  0.473140  0.555816
    C   C24   0.559710  0.554450  0.587050  0.617998
    O   O49   0.955600  0.553180  0.094640  -0.522117
    O   O50   0.042190  0.469170  0.189980  -0.539487
    O   O51   0.043560  0.552270  0.098980  -0.495577
    O   O52   0.954320  0.469470  0.180630  -0.556336
    O   O53   0.955270  0.449550  0.920490  -0.562643
    O   O54   0.044530  0.531890  0.839170  -0.511092
    O   O55   0.043460  0.448910  0.930190  -0.543160
    O   O56   0.957220  0.533240  0.834300  -0.511259
    Cu  Cu13  0.998780  0.513110  0.166590  0.932005
    Cu  Cu14  0.000170  0.488560  0.855420  0.926786
    C   C25   0.942040  0.557980  0.948370  0.641423
    C   C26   0.057900  0.444890  0.075640  0.658254
    C   C27   0.059290  0.556240  0.955560  0.537872
    C   C28   0.939350  0.445490  0.063450  0.693825
    O   O57   0.458010  0.050200  0.565190  -0.453306
    O   O58   0.545660  0.965730  0.637420  -0.548011
    O   O59   0.545730  0.049020  0.551890  -0.559481
    O   O60   0.457950  0.966510  0.649380  -0.611700
    O   O61   0.454990  0.947080  0.388930  -0.576632
    O   O62   0.543030  0.029880  0.291250  -0.565433
    O   O63   0.543100  0.946340  0.377650  -0.509887
    O   O64   0.455040  0.030800  0.305020  -0.446047
    Cu  Cu15  0.502160  0.009940  0.626410  0.976962
    Cu  Cu16  0.498670  0.986400  0.314990  0.914118
    C   C29   0.441590  0.055200  0.422870  0.508506
    C   C30   0.559530  0.941450  0.519810  0.638794
    C   C31   0.559770  0.053430  0.406530  0.662522
    C   C32   0.441240  0.942740  0.534770  0.740863
    C   C33   0.158730  0.137180  0.025040  0.003441
    C   C34   0.157370  0.158750  0.179080  -0.020998
    C   C35   0.123480  0.145410  0.291620  -0.045511
    C   C36   0.093040  0.111520  0.248760  -0.098439
    C   C37   0.094680  0.090380  0.095430  0.049274
    C   C38   0.128300  0.103170  0.983470  -0.073872
    Br  Br1   0.136810  0.073410  0.776710  -0.026598
    H   H1    0.184380  0.145870  0.936520  0.085926
    H   H2    0.067000  0.102380  0.335160  0.138785
    Br  Br2   0.113200  0.173280  0.501420  -0.004070
    C   C39   0.647410  0.630920  0.790520  -0.177740
    C   C40   0.660400  0.657690  0.658350  0.097027
    C   C41   0.640180  0.650000  0.504100  0.034973
    C   C42   0.608080  0.616140  0.485270  -0.125723
    C   C43   0.594900  0.589170  0.617190  0.031805
    C   C44   0.615270  0.596920  0.771970  -0.033061
    Br  Br3   0.601950  0.563060  0.964920  0.005566
    H   H3    0.662740  0.636150  0.909700  0.129697
    H   H4    0.592950  0.611370  0.365590  0.072444
    Br  Br4   0.652320  0.685800  0.315030  -0.061457
    C   C45   0.839000  0.367160  0.011270  0.004212
    C   C46   0.839650  0.343820  0.160090  -0.016846
    C   C47   0.873080  0.355340  0.277920  -0.060659
    C   C48   0.904360  0.389130  0.244570  0.008626
    C   C49   0.903950  0.411720  0.094980  -0.067572
    C   C50   0.870520  0.400710  0.978070  -0.028306
    Br  Br5   0.864220  0.431890  0.774640  -0.034350
    H   H5    0.813530  0.359600  0.919710  0.069955
    H   H6    0.930030  0.397040  0.335110  0.073601
    Br  Br6   0.880270  0.325720  0.484330  -0.028553
    C   C51   0.339640  0.865120  0.502900  0.019807
    C   C52   0.341970  0.842420  0.652780  -0.035830
    C   C53   0.377310  0.853590  0.763350  -0.057145
    C   C54   0.408540  0.886790  0.722830  0.007049
    C   C55   0.406250  0.909050  0.572750  -0.103385
    C   C56   0.371140  0.898080  0.462350  -0.005303
    Br  Br7   0.362410  0.928640  0.258830  -0.044540
    H   H7    0.312740  0.857660  0.416750  0.053722
    H   H8    0.435570  0.894550  0.808200  0.093146
    Br  Br8   0.387220  0.824010  0.968380  -0.013913
    C   C57   0.877020  0.650790  0.739840  -0.148915
    C   C58   0.841410  0.658130  0.850200  -0.024164
    C   C59   0.839460  0.632020  0.993700  0.044814
    C   C60   0.872760  0.599890  0.023290  -0.126161
    C   C61   0.907980  0.592520  0.911920  -0.055395
    C   C62   0.910100  0.618620  0.769500  0.099600
    Br  Br9   0.959010  0.614510  0.616690  -0.110493
    H   H9    0.879750  0.670770  0.630380  0.120925
    H   H10   0.870650  0.579900  0.132960  0.114192
    Br  Br10  0.791530  0.636330  0.151080  -0.065763
    C   C63   0.364750  0.141870  0.227610  -0.183582
    C   C64   0.338190  0.155640  0.361380  0.084644
    C   C65   0.346060  0.135490  0.515120  -0.012421
    C   C66   0.379720  0.103000  0.530840  -0.147652
    C   C67   0.406160  0.089450  0.396900  0.015682
    C   C68   0.398340  0.109450  0.243640  0.065844
    Br  Br11  0.433620  0.096620  0.052160  -0.086809
    H   H11   0.359870  0.156740  0.108520  0.119168
    H   H12   0.385060  0.087970  0.649480  0.134187
    Br  Br12  0.312990  0.149870  0.710560  -0.055380
    C   C69   0.159210  0.865110  0.982380  0.071958
    C   C70   0.159800  0.842850  0.829570  -0.007580
    C   C71   0.127290  0.855580  0.710090  -0.142333
    C   C72   0.096070  0.889280  0.745780  0.087744
    C   C73   0.095600  0.910880  0.898410  -0.065372
    C   C74   0.128030  0.898900  0.016750  -0.106403
    Br  Br13  0.133850  0.929450  0.223480  -0.005461
    H   H13   0.183770  0.856990  0.076080  0.052004
    H   H14   0.071100  0.897960  0.654170  0.038904
    Br  Br14  0.120240  0.827450  0.498740  0.008401
    C   C75   0.659380  0.363280  0.491170  0.005456
    C   C76   0.656490  0.340660  0.339960  -0.031905
    C   C77   0.621120  0.352090  0.230840  -0.019655
    C   C78   0.590540  0.385710  0.273510  -0.119009
    C   C79   0.593480  0.408060  0.424520  0.030676
    C   C80   0.628440  0.396630  0.534050  -0.022289
    Br  Br15  0.637690  0.427090  0.739240  -0.049967
    H   H15   0.686320  0.355530  0.576270  0.061845
    H   H16   0.563510  0.393760  0.189060  0.132132
    Br  Br16  0.610250  0.322220  0.025240  -0.018631
    C   C81   0.842240  0.866450  0.966410  0.003670
    C   C82   0.842400  0.843790  0.814410  -0.078132
    C   C83   0.875250  0.856540  0.696880  -0.041117
    C   C84   0.906420  0.890330  0.734450  0.016786
    C   C85   0.906320  0.912050  0.886900  -0.054873
    C   C86   0.873240  0.900330  0.002530  -0.039897
    Br  Br17  0.866310  0.931170  0.208130  -0.025603
    H   H17   0.817270  0.858510  0.058360  0.106539
    H   H18   0.931780  0.898920  0.644730  0.065482
    Br  Br18  0.882580  0.828580  0.485640  -0.033687
    C   C87   0.371140  0.351230  0.266380  -0.085495
    C   C88   0.338310  0.342540  0.386110  -0.060488
    C   C89   0.340220  0.366840  0.535420  0.050118
    C   C90   0.374430  0.398480  0.560990  -0.089143
    C   C91   0.406820  0.407170  0.440410  -0.037064
    C   C92   0.405110  0.382920  0.292080  0.049361
    Br  Br19  0.449750  0.388910  0.123720  -0.092131
    H   H19   0.370970  0.332750  0.151930  0.091015
    H   H20   0.375240  0.417040  0.675300  0.101634
    Br  Br20  0.296870  0.360510  0.708360  -0.088178
    C   C93   0.159430  0.635400  0.997400  0.115185
    C   C94   0.157670  0.658100  0.847370  -0.063715
    C   C95   0.123100  0.646560  0.734160  -0.031631
    C   C96   0.092280  0.612790  0.771640  -0.154887
    C   C97   0.094020  0.590440  0.921540  0.108694
    C   C98   0.128130  0.601950  0.035170  -0.156053
    Br  Br21  0.135670  0.571430  0.239280  -0.005078
    H   H21   0.185710  0.643220  0.085620  0.033784
    H   H22   0.065960  0.604640  0.683940  0.169085
    Br  Br22  0.113520  0.676440  0.529430  -0.013445
    C   C99   0.659310  0.132840  0.453770  -0.169729
    C   C100  0.658980  0.155430  0.302900  0.099017
    C   C101  0.626080  0.142450  0.184300  -0.128031
    C   C102  0.594970  0.108590  0.219900  0.041144
    C   C103  0.595210  0.086950  0.371370  -0.081294
    C   C104  0.628460  0.098830  0.487800  0.048296
    Br  Br23  0.635880  0.068070  0.691800  -0.065053
    H   H23   0.684330  0.140920  0.546460  0.178734
    H   H24   0.569520  0.099910  0.129460  0.080256
    Br  Br24  0.618510  0.170370  0.974540  -0.002316
    C   C105  0.158490  0.366750  0.042530  -0.176510
    C   C106  0.156100  0.343700  0.191670  0.141068
    C   C107  0.121260  0.355070  0.302920  -0.155739
    C   C108  0.090340  0.388610  0.263200  0.091688
    C   C109  0.092550  0.411000  0.113400  -0.068771
    C   C110  0.127340  0.400030  0.002850  -0.014209
    Br  Br25  0.136040  0.430960  0.800230  -0.020107
    H   H25   0.185100  0.359250  0.956000  0.179008
    H   H26   0.063590  0.396510  0.348790  0.043445
    Br  Br26  0.111680  0.325430  0.507810  -0.019156
    C   C111  0.640490  0.842530  0.476900  -0.029260
    C   C112  0.663460  0.844700  0.627070  -0.037348
    C   C113  0.653070  0.879510  0.737950  0.004583
    C   C114  0.619440  0.910350  0.699250  -0.067243
    C   C115  0.595440  0.907790  0.550640  -0.041497
    C   C116  0.606630  0.873320  0.437910  -0.012801
    Br  Br27  0.576390  0.864250  0.231790  -0.046701
    H   H27   0.648070  0.815880  0.390800  0.087417
    H   H28   0.612330  0.936820  0.786520  0.121444
    Br  Br28  0.685130  0.888550  0.940490  -0.050494
    C   C117  0.873240  0.148800  0.245910  -0.118675
    C   C118  0.839910  0.157010  0.126660  -0.046766
    C   C119  0.841200  0.132160  0.978590  0.101483
    C   C120  0.875240  0.100400  0.953790  -0.155254
    C   C121  0.908070  0.092110  0.074070  -0.045845
    C   C122  0.907010  0.116970  0.221040  0.073167
    Br  Br29  0.952330  0.111530  0.388360  -0.093492
    H   H29   0.873580  0.167720  0.359400  0.104644
    H   H30   0.875570  0.081400  0.840420  0.119516
    Br  Br30  0.797100  0.137810  0.806860  -0.100813
    C   C123  0.351730  0.627030  0.798650  -0.133798
    C   C124  0.341340  0.656910  0.672350  0.027174
    C   C125  0.364360  0.652810  0.522280  -0.066917
    C   C126  0.396370  0.619100  0.500860  -0.040936
    C   C127  0.406750  0.588790  0.626330  -0.008900
    C   C128  0.383790  0.593120  0.777370  0.024282
    Br  Br31  0.392860  0.553870  0.959580  -0.047787
    H   H31   0.334270  0.629630  0.914580  0.095671
    H   H32   0.413720  0.617150  0.384620  0.063228
    Br  Br32  0.356320  0.693630  0.344240  -0.001903
