# Generated by REPEAT Assigner based on pymatgen
data_DB3-bcu_sym_8_mc_9__L_12_FGNO_2__
_audit_creation_date              2022-05-24
_audit_creation_method            REPEAT_Assigner
_cell_length_a                    21.088700
_cell_length_b                    13.867400
_cell_length_c                    13.026100
_cell_angle_alpha                 90.476000
_cell_angle_beta                  90.246500
_cell_angle_gamma                 89.800800
_cell_volume                      3809.234258
_symmetry_space_group_name_H-M    P1
_symmetry_Int_Tables_number       1
loop_
    _symmetry_equiv_pos_site_id
    _symmetry_equiv_pos_as_xyz
    1  x,y,z
loop_
    _atom_site_type_symbol
    _atom_site_label
    _atom_site_fract_x
    _atom_site_fract_y
    _atom_site_fract_z
    _atom_type_partial_charge
    O   O1    0.085670  0.170030  0.191310  -0.548463
    O   O2    0.156810  0.086270  0.091820  -0.190178
    C   C1    0.142950  0.147670  0.163810  0.345833
    O   O3    0.911160  0.823250  0.174730  -0.612613
    O   O4    0.841320  0.915300  0.081720  -0.352813
    C   C2    0.853900  0.847790  0.147140  0.485658
    O   O5    0.090640  0.835910  0.189110  -0.537863
    O   O6    0.159750  0.924490  0.094040  -0.421236
    C   C3    0.148110  0.861120  0.164230  0.496484
    O   O7    0.909080  0.177320  0.175970  -0.461578
    O   O8    0.840630  0.086190  0.078500  -0.465366
    C   C4    0.852700  0.153490  0.145550  0.393034
    Zr  Zr1   0.998010  0.123460  0.128210  2.033830
    O   O9    0.992000  0.126030  0.290290  -0.867574
    O   O10   0.994120  0.276760  0.124130  -0.696387
    Zr  Zr2   0.000760  0.879660  0.130580  1.976723
    O   O11   0.001980  0.880750  0.294030  -0.613236
    O   O12   0.004040  0.727460  0.118080  -0.842114
    O   O13   0.055730  0.002990  0.150720  -0.407458
    O   O14   0.943660  0.000870  0.146360  -1.638406
    O   O15   0.911220  0.171570  0.817510  -0.616800
    O   O16   0.841380  0.078340  0.907330  -0.350695
    C   C5    0.854200  0.144990  0.841280  0.426898
    O   O17   0.092120  0.835640  0.811070  -0.519830
    O   O18   0.160140  0.920560  0.915410  -0.357660
    C   C6    0.148530  0.860200  0.841380  0.462502
    O   O19   0.915490  0.819140  0.818560  -0.582651
    O   O20   0.844110  0.909150  0.911270  -0.334022
    C   C7    0.858150  0.842310  0.844890  0.409878
    O   O21   0.089570  0.166050  0.814140  -0.337113
    O   O22   0.159420  0.081380  0.914150  -0.402419
    C   C8    0.146780  0.142940  0.842490  0.320228
    Zr  Zr3   0.000380  0.119490  0.868700  2.113287
    O   O23   0.004560  0.116830  0.705560  -0.714670
    O   O24   0.003110  0.272140  0.869880  -0.943750
    Zr  Zr4   0.002870  0.875680  0.871970  2.089368
    O   O25   0.999660  0.866000  0.710050  -0.737727
    O   O26   0.011740  0.723620  0.884750  -0.673137
    Zr  Zr5   0.094960  0.001830  0.002290  1.354168
    Zr  Zr6   0.905740  0.998120  0.997050  1.458224
    O   O27   0.946420  0.996140  0.849990  -1.776374
    O   O28   0.058010  0.998470  0.851810  -0.437121
    O   O29   0.942560  0.139080  0.996600  -0.409959
    O   O30   0.057640  0.861640  0.002810  -1.518818
    O   O31   0.054360  0.140280  0.999850  -1.620153
    O   O32   0.945190  0.858450  0.999850  -0.425130
    H   H1    0.913620  0.001940  0.204540  0.689115
    H   H2    0.087350  0.806110  0.003270  0.641525
    H   H3    0.917720  0.993770  0.789760  0.770945
    H   H4    0.083280  0.196300  0.999520  0.633108
    H   H5    0.006100  0.701840  0.188710  0.312902
    H   H6    0.973830  0.699880  0.921150  0.388172
    H   H7    0.015240  0.928280  0.683980  0.325212
    H   H8    0.965680  0.086080  0.678330  0.384335
    H   H9    0.972480  0.294960  0.922150  0.402518
    H   H10   0.033680  0.301290  0.093640  0.344284
    H   H11   0.013820  0.067530  0.315290  0.376906
    H   H12   0.962200  0.910740  0.318670  0.309031
    H   H13   0.000920  0.184880  0.683560  0.427251
    H   H14   0.996290  0.298950  0.196580  0.441936
    H   H15   0.998860  0.812850  0.316230  0.404323
    H   H16   0.007520  0.697410  0.814070  0.402666
    O   O33   0.590650  0.665220  0.689520  -0.608586
    O   O34   0.659040  0.578540  0.587840  -0.250017
    C   C9    0.647230  0.639900  0.660870  0.438504
    O   O35   0.410510  0.327310  0.678940  -0.530689
    O   O36   0.341020  0.419850  0.586880  -0.452151
    C   C10   0.353410  0.352730  0.652660  0.498346
    O   O37   0.588960  0.334000  0.687080  -0.539910
    O   O38   0.658990  0.418840  0.588770  -0.459880
    C   C11   0.646070  0.357360  0.659980  0.403802
    O   O39   0.413650  0.678740  0.681710  -0.453413
    O   O40   0.342630  0.590650  0.586110  -0.246199
    C   C12   0.356470  0.656100  0.654040  0.219249
    Zr  Zr7   0.501300  0.623610  0.628730  2.065101
    O   O41   0.498770  0.628530  0.790930  -0.747683
    O   O42   0.500020  0.776940  0.623400  -0.699806
    Zr  Zr8   0.499510  0.379820  0.629860  1.971027
    O   O43   0.503790  0.378480  0.792970  -0.587383
    O   O44   0.493690  0.227130  0.623710  -0.842442
    O   O45   0.556810  0.500590  0.648830  -0.422741
    O   O46   0.445090  0.503110  0.648470  -1.739957
    O   O47   0.410990  0.676710  0.321490  -0.600654
    O   O48   0.341450  0.586810  0.414440  -0.440918
    C   C13   0.353700  0.652940  0.348060  0.492479
    O   O49   0.586080  0.328030  0.311220  -0.596973
    O   O50   0.657170  0.411480  0.411800  -0.468466
    C   C14   0.643310  0.348700  0.340880  0.527675
    O   O51   0.408920  0.326190  0.319320  -0.503537
    O   O52   0.340370  0.418160  0.415630  -0.223579
    C   C15   0.352380  0.352060  0.347540  0.145686
    O   O53   0.589830  0.665190  0.313180  -0.348505
    O   O54   0.659430  0.575720  0.409130  -0.323200
    C   C16   0.647000  0.639370  0.339260  0.303981
    Zr  Zr9   0.500450  0.620560  0.369480  2.057532
    O   O55   0.502790  0.617590  0.206250  -0.771729
    O   O56   0.505750  0.773030  0.370620  -0.892916
    Zr  Zr10  0.498270  0.377010  0.370980  2.072732
    O   O57   0.493300  0.372430  0.208780  -0.787586
    O   O58   0.503040  0.224340  0.380790  -0.667162
    Zr  Zr11  0.594450  0.497890  0.499090  1.509859
    Zr  Zr12  0.404880  0.502590  0.500640  1.480418
    O   O59   0.443850  0.500010  0.352250  -1.690729
    O   O60   0.555890  0.497110  0.349750  -0.483998
    O   O61   0.444360  0.642070  0.499360  -0.452461
    O   O62   0.554030  0.359770  0.500320  -1.656108
    O   O63   0.556510  0.638170  0.498840  -1.638634
    O   O64   0.442020  0.361400  0.500720  -0.384800
    H   H17   0.416250  0.504290  0.708080  0.763894
    H   H18   0.582320  0.302940  0.500430  0.725002
    H   H19   0.414410  0.499820  0.293020  0.777995
    H   H20   0.586490  0.692880  0.498230  0.635728
    H   H21   0.535960  0.200240  0.607140  0.323421
    H   H22   0.465810  0.202670  0.420380  0.351070
    H   H23   0.518960  0.426810  0.183450  0.331725
    H   H24   0.463340  0.587700  0.180180  0.399478
    H   H25   0.476280  0.796940  0.424060  0.351129
    H   H26   0.540520  0.799690  0.594570  0.370892
    H   H27   0.514340  0.565400  0.815190  0.328831
    H   H28   0.465240  0.410250  0.820170  0.341346
    H   H29   0.499560  0.685700  0.184320  0.450560
    H   H30   0.501510  0.799410  0.695790  0.432080
    H   H31   0.499240  0.310110  0.813180  0.365705
    H   H32   0.495700  0.199320  0.310280  0.414492
    C   C17   0.244460  0.233670  0.150990  0.092349
    C   C18   0.196180  0.198230  0.213890  -0.007974
    C   C19   0.198870  0.215080  0.320990  -0.026856
    C   C20   0.249330  0.268930  0.361980  -0.148396
    C   C21   0.298010  0.303230  0.298970  0.329516
    C   C22   0.295170  0.286400  0.191940  -0.240439
    N   N1    0.341250  0.326180  0.123320  0.773580
    H   H33   0.241400  0.223110  0.068590  0.029309
    H   H34   0.252300  0.280350  0.444290  0.127378
    N   N2    0.153400  0.173470  0.389430  0.665775
    O   O65   0.356710  0.279660  0.039870  -0.390709
    O   O66   0.359700  0.415040  0.134830  -0.449429
    O   O67   0.134580  0.085070  0.375290  -0.370078
    O   O68   0.138800  0.217520  0.474750  -0.381582
    C   C23   0.810350  0.701180  0.231180  -0.143667
    C   C24   0.799880  0.794530  0.193180  -0.004214
    C   C25   0.738370  0.834900  0.201760  -0.070175
    C   C26   0.690050  0.782820  0.249520  -0.081778
    C   C27   0.700650  0.689890  0.288700  0.006135
    C   C28   0.761810  0.648770  0.278270  0.026370
    N   N3    0.775460  0.553110  0.312190  0.613003
    H   H35   0.856770  0.668070  0.224210  0.192894
    H   H36   0.643720  0.816230  0.256600  0.181607
    N   N4    0.724160  0.929700  0.165440  0.630027
    O   O69   0.793410  0.488340  0.245540  -0.405121
    O   O70   0.786510  0.538410  0.409040  -0.287444
    O   O71   0.713500  0.942660  0.068070  -0.288941
    O   O72   0.707170  0.996420  0.230580  -0.415840
    C   C29   0.809120  0.293890  0.765730  0.045641
    C   C30   0.800810  0.196720  0.791750  0.046193
    C   C31   0.740870  0.153750  0.775750  -0.071649
    C   C32   0.690710  0.209080  0.736870  -0.139273
    C   C33   0.699330  0.305870  0.709640  0.323354
    C   C34   0.759250  0.348580  0.725390  -0.269718
    N   N5    0.769790  0.448400  0.705900  0.709203
    H   H37   0.854370  0.328710  0.779220  0.142667
    H   H38   0.645480  0.174510  0.722570  0.136577
    N   N6    0.731510  0.052610  0.790110  0.624279
    O   O73   0.781550  0.506030  0.782860  -0.393696
    O   O74   0.785690  0.474700  0.614050  -0.329448
    O   O75   0.679330  0.021620  0.831110  -0.365730
    O   O76   0.768080  0.991850  0.742030  -0.385348
    C   C35   0.251080  0.775390  0.853140  -0.039537
    C   C36   0.203140  0.814060  0.790830  -0.015170
    C   C37   0.206340  0.802240  0.683100  0.072247
    C   C38   0.256160  0.747850  0.640830  -0.216439
    C   C39   0.303630  0.707980  0.703380  0.267414
    C   C40   0.301040  0.721650  0.810940  -0.037390
    N   N7    0.346220  0.676990  0.878650  0.665931
    H   H39   0.247850  0.783080  0.935840  0.071146
    H   H40   0.259430  0.739660  0.558210  0.157216
    N   N8    0.161720  0.848910  0.615800  0.556906
    O   O77   0.362750  0.587460  0.864260  -0.433883
    O   O78   0.362650  0.719870  0.963870  -0.381993
    O   O79   0.141670  0.935740  0.636560  -0.358476
    O   O80   0.148450  0.811220  0.526490  -0.348416
    C   C41   0.187410  0.278660  0.737850  -0.172202
    C   C42   0.200240  0.193460  0.791900  0.145855
    C   C43   0.263700  0.160800  0.797940  -0.122867
    C   C44   0.312140  0.213720  0.752000  -0.080310
    C   C45   0.299590  0.300450  0.700410  -0.028760
    C   C46   0.235940  0.332820  0.693680  0.023544
    N   N9    0.219500  0.422700  0.647240  0.633719
    H   H41   0.139330  0.306100  0.733010  0.169236
    H   H42   0.360210  0.186300  0.757450  0.182055
    N   N10   0.280330  0.074110  0.850160  0.696584
    O   O81   0.238210  0.502640  0.690290  -0.445666
    O   O82   0.174270  0.425590  0.579110  -0.310544
    O   O83   0.289550  0.077260  0.948830  -0.293027
    O   O84   0.301810  0.000830  0.797790  -0.420994
    C   C47   0.753620  0.762970  0.857870  -0.163428
    C   C48   0.805100  0.789540  0.796410  0.092897
    C   C49   0.805090  0.764050  0.691070  -0.002902
    C   C50   0.753860  0.712210  0.650270  -0.081399
    C   C51   0.702030  0.686590  0.711380  -0.062278
    C   C52   0.702560  0.710430  0.817130  0.110461
    N   N11   0.654030  0.677010  0.885120  0.563706
    H   H43   0.754370  0.780180  0.939190  0.145978
    H   H44   0.753140  0.695560  0.568800  0.081620
    N   N12   0.854210  0.795360  0.623050  0.663918
    O   O85   0.634270  0.588400  0.878290  -0.340679
    O   O86   0.637740  0.728810  0.964570  -0.360195
    O   O87   0.872230  0.739910  0.547460  -0.396387
    O   O88   0.872550  0.884840  0.624810  -0.397478
    C   C53   0.185930  0.738110  0.278030  -0.072830
    C   C54   0.197900  0.815870  0.211430  0.020462
    C   C55   0.262710  0.838970  0.192440  -0.022829
    C   C56   0.311500  0.783720  0.236130  -0.089729
    C   C57   0.299080  0.705270  0.300090  0.013829
    C   C58   0.234900  0.682030  0.319940  -0.070701
    N   N13   0.217740  0.598770  0.377740  0.626604
    H   H45   0.137730  0.716450  0.294630  0.158788
    H   H46   0.360060  0.804480  0.221190  0.163982
    N   N14   0.281030  0.921050  0.133870  0.591561
    O   O89   0.177680  0.607460  0.452920  -0.298397
    O   O90   0.228900  0.513510  0.339500  -0.429222
    O   O91   0.271280  0.006730  0.171910  -0.383000
    O   O92   0.322330  0.910350  0.060730  -0.297700
    C   C59   0.790930  0.196430  0.299340  -0.031725
    C   C60   0.799140  0.205040  0.193330  0.120326
    C   C61   0.756350  0.262050  0.136020  -0.079310
    C   C62   0.704210  0.304830  0.185550  -0.092158
    C   C63   0.695970  0.296060  0.291640  0.119682
    C   C64   0.739700  0.240800  0.349190  -0.120701
    N   N15   0.730930  0.224200  0.456650  0.660618
    H   H47   0.823640  0.152250  0.343100  0.124972
    H   H48   0.671720  0.349710  0.142250  0.159265
    N   N16   0.768120  0.284140  0.030460  0.659279
    O   O93   0.676300  0.194450  0.489350  -0.373107
    O   O94   0.780040  0.217770  0.517070  -0.388516
    O   O95   0.721010  0.305100  0.969680  -0.404551
    O   O96   0.825550  0.303510  0.001180  -0.327215
