data_DB5-hypotheticalMOF_18793_1_1_1_25_21_4_repeat
_audit_creation_date              2024-02-23
_audit_creation_method            'Materials Studio'
_symmetry_space_group_name_H-M    'P1'
_symmetry_Int_Tables_number       1
_symmetry_cell_setting            triclinic
loop_
_symmetry_equiv_pos_as_xyz
  x,y,z
_cell_length_a                    17.6991
_cell_length_b                    16.1093
_cell_length_c                    15.1862
_cell_angle_alpha                 89.9991
_cell_angle_beta                  89.9972
_cell_angle_gamma                 83.3716
loop_
_atom_site_label
_atom_site_type_symbol
_atom_site_fract_x
_atom_site_fract_y
_atom_site_fract_z
_atom_site_U_iso_or_equiv
_atom_site_adp_type
_atom_site_occupancy
O1     O     0.00423   0.10511   0.92679   0.00000  Uiso   1.00
O2     O     0.50423   0.60511   0.42679   0.00000  Uiso   1.00
O3     O     0.78387   0.11880   0.92679   0.00000  Uiso   1.00
O4     O     0.28387   0.61880   0.42679   0.00000  Uiso   1.00
O5     O     0.90010   0.99091   0.92679   0.00000  Uiso   1.00
O6     O     0.40010   0.49091   0.42679   0.00000  Uiso   1.00
O7     O     0.88800   0.23300   0.92679   0.00000  Uiso   1.00
O8     O     0.38800   0.73300   0.42679   0.00000  Uiso   1.00
O9     O     0.90009   0.99091   0.07324   0.00000  Uiso   1.00
O10    O     0.40009   0.49091   0.57324   0.00000  Uiso   1.00
O11    O     0.78386   0.11880   0.07324   0.00000  Uiso   1.00
O12    O     0.28386   0.61880   0.57324   0.00000  Uiso   1.00
O13    O     0.00422   0.10511   0.07325   0.00000  Uiso   1.00
O14    O     0.50422   0.60511   0.57325   0.00000  Uiso   1.00
Zn1    Zn    0.89404   0.11195   0.09650   0.00000  Uiso   1.00
Zn2    Zn    0.39404   0.61195   0.59650   0.00000  Uiso   1.00
Zn3    Zn    0.89405   0.11196   0.90353   0.00000  Uiso   1.00
Zn4    Zn    0.39405   0.61196   0.40353   0.00000  Uiso   1.00
O15    O     0.88799   0.23299   0.07324   0.00000  Uiso   1.00
O16    O     0.38799   0.73299   0.57324   0.00000  Uiso   1.00
C1     C     0.89961   0.95994   0.00001   0.00000  Uiso   1.00
C2     C     0.39961   0.45994   0.50001   0.00000  Uiso   1.00
C3     C     0.89814   0.86765   0.00001   0.00000  Uiso   1.00
C4     C     0.39814   0.36765   0.50001   0.00000  Uiso   1.00
C5     C     0.75567   0.11831   0.00001   0.00000  Uiso   1.00
C6     C     0.25567   0.61831   0.50001   0.00000  Uiso   1.00
C7     C     0.67165   0.11684   0.00001   0.00000  Uiso   1.00
C8     C     0.17165   0.61684   0.50001   0.00000  Uiso   1.00
C9     C     0.89474   0.65532   0.92018   0.00000  Uiso   1.00
C10    C     0.39474   0.15532   0.42018   0.00000  Uiso   1.00
C11    C     0.89335   0.56860   0.92018   0.00000  Uiso   1.00
C12    C     0.39335   0.06860   0.42018   0.00000  Uiso   1.00
C13    C     0.89335   0.56860   0.07985   0.00000  Uiso   1.00
C14    C     0.39335   0.06860   0.57985   0.00000  Uiso   1.00
C15    C     0.89473   0.65532   0.07985   0.00000  Uiso   1.00
C16    C     0.39473   0.15532   0.57985   0.00000  Uiso   1.00
C17    C     0.89543   0.69867   0.00001   0.00000  Uiso   1.00
C18    C     0.39543   0.19867   0.50001   0.00000  Uiso   1.00
C19    C     0.89266   0.52524   0.00001   0.00000  Uiso   1.00
C20    C     0.39266   0.02524   0.50001   0.00000  Uiso   1.00
C21    C     0.89115   0.43121   0.00001   0.00000  Uiso   1.00
C22    C     0.39115   0.93121   0.50001   0.00000  Uiso   1.00
C23    C     0.89694   0.79270   0.00001   0.00000  Uiso   1.00
C24    C     0.39694   0.29270   0.50001   0.00000  Uiso   1.00
C25    C     0.63217   0.11615   0.07985   0.00000  Uiso   1.00
C26    C     0.13217   0.61615   0.57985   0.00000  Uiso   1.00
C27    C     0.55323   0.11475   0.07985   0.00000  Uiso   1.00
C28    C     0.05323   0.61475   0.57985   0.00000  Uiso   1.00
C29    C     0.51376   0.11406   0.00001   0.00000  Uiso   1.00
C30    C     0.01376   0.61406   0.50001   0.00000  Uiso   1.00
C31    C     0.55324   0.11475   0.92017   0.00000  Uiso   1.00
C32    C     0.05324   0.61475   0.42017   0.00000  Uiso   1.00
C33    C     0.63218   0.11614   0.92017   0.00000  Uiso   1.00
C34    C     0.13218   0.61614   0.42017   0.00000  Uiso   1.00
C35    C     0.23487   0.10915   0.92017   0.00000  Uiso   1.00
C36    C     0.73487   0.60915   0.42017   0.00000  Uiso   1.00
C37    C     0.15592   0.10777   0.92018   0.00000  Uiso   1.00
C38    C     0.65592   0.60777   0.42018   0.00000  Uiso   1.00
C39    C     0.15592   0.10777   0.07985   0.00000  Uiso   1.00
C40    C     0.65592   0.60777   0.57985   0.00000  Uiso   1.00
C41    C     0.23486   0.10916   0.07985   0.00000  Uiso   1.00
C42    C     0.73486   0.60916   0.57985   0.00000  Uiso   1.00
C43    C     0.27433   0.10984   0.00001   0.00000  Uiso   1.00
C44    C     0.77433   0.60984   0.50001   0.00000  Uiso   1.00
C45    C     0.35993   0.11135   0.00001   0.00000  Uiso   1.00
C46    C     0.85993   0.61135   0.50001   0.00000  Uiso   1.00
C47    C     0.42816   0.11256   0.00001   0.00000  Uiso   1.00
C48    C     0.92816   0.61256   0.50001   0.00000  Uiso   1.00
C49    C     0.03242   0.10560   0.00002   0.00000  Uiso   1.00
C50    C     0.53242   0.60560   0.50002   0.00000  Uiso   1.00
C51    C     0.11644   0.10707   0.00001   0.00000  Uiso   1.00
C52    C     0.61644   0.60707   0.50001   0.00000  Uiso   1.00
C53    C     0.88848   0.26397   0.00002   0.00000  Uiso   1.00
C54    C     0.38848   0.76397   0.50002   0.00000  Uiso   1.00
C55    C     0.88995   0.35626   0.00002   0.00000  Uiso   1.00
C56    C     0.38995   0.85626   0.50002   0.00000  Uiso   1.00
N1     N     0.89404   0.11195   0.22819   0.00000  Uiso   1.00
N2     N     0.39404   0.61195   0.72819   0.00000  Uiso   1.00
N3     N     0.89406   0.11195   0.77184   0.00000  Uiso   1.00
N4     N     0.39406   0.61195   0.27184   0.00000  Uiso   1.00
C57    C     0.94552   0.05534   0.45391   0.00000  Uiso   1.00
C58    C     0.44552   0.55534   0.95391   0.00000  Uiso   1.00
C59    C     0.94553   0.05534   0.54610   0.00000  Uiso   1.00
C60    C     0.44553   0.55534   0.04610   0.00000  Uiso   1.00
C61    C     0.84257   0.16856   0.54611   0.00000  Uiso   1.00
C62    C     0.34257   0.66856   0.04611   0.00000  Uiso   1.00
C63    C     0.84256   0.16856   0.45392   0.00000  Uiso   1.00
C64    C     0.34256   0.66856   0.95392   0.00000  Uiso   1.00
C65    C     0.89404   0.11195   0.40783   0.00000  Uiso   1.00
C66    C     0.39404   0.61195   0.90783   0.00000  Uiso   1.00
C67    C     0.89405   0.11195   0.59220   0.00000  Uiso   1.00
C68    C     0.39405   0.61195   0.09220   0.00000  Uiso   1.00
C69    C     0.89405   0.11195   0.69216   0.00000  Uiso   1.00
C70    C     0.39405   0.61195   0.19216   0.00000  Uiso   1.00
C71    C     0.89404   0.11195   0.30786   0.00000  Uiso   1.00
C72    C     0.39404   0.61195   0.80786   0.00000  Uiso   1.00
H1     H     0.89279   0.53330   0.85517   0.00000  Uiso   1.00
H2     H     0.39279   0.03330   0.35517   0.00000  Uiso   1.00
O17    O     0.89548   0.70208   0.16597   0.00000  Uiso   1.00
O18    O     0.39548   0.20208   0.66597   0.00000  Uiso   1.00
H3     H     0.89655   0.76967   0.15255   0.00000  Uiso   1.00
H4     H     0.39655   0.26966   0.65255   0.00000  Uiso   1.00
O19    O     0.51063   0.11392   0.16593   0.00000  Uiso   1.00
O20    O     0.01063   0.61392   0.66593   0.00000  Uiso   1.00
H5     H     0.46786   0.16990   0.16978   0.00000  Uiso   1.00
H6     H     0.96786   0.66990   0.66978   0.00000  Uiso   1.00
H7     H     0.66431   0.11672   0.14486   0.00000  Uiso   1.00
H8     H     0.16431   0.61672   0.64486   0.00000  Uiso   1.00
O21    O     0.00105   0.99428   0.59581   0.00000  Uiso   1.00
O22    O     0.50105   0.49428   0.09581   0.00000  Uiso   1.00
H9     H     0.99240   0.00379   0.66766   0.00000  Uiso   1.00
H10    H     0.49240   0.50379   0.16766   0.00000  Uiso   1.00
O23    O     0.27743   0.10991   0.16596   0.00000  Uiso   1.00
O24    O     0.77743   0.60991   0.66596   0.00000  Uiso   1.00
H11    H     0.33895   0.11100   0.15254   0.00000  Uiso   1.00
H12    H     0.83895   0.61100   0.65254   0.00000  Uiso   1.00
H13    H     0.89531   0.69061   0.85517   0.00000  Uiso   1.00
H14    H     0.39531   0.19061   0.35517   0.00000  Uiso   1.00
O25    O     0.89261   0.52184   0.16597   0.00000  Uiso   1.00
O26    O     0.39261   0.02184   0.66597   0.00000  Uiso   1.00
H15    H     0.89155   0.45425   0.15256   0.00000  Uiso   1.00
H16    H     0.39155   0.95425   0.65256   0.00000  Uiso   1.00
H17    H     0.12377   0.10721   0.14486   0.00000  Uiso   1.00
H18    H     0.62377   0.60721   0.64486   0.00000  Uiso   1.00
H19    H     0.80065   0.21465   0.58365   0.00000  Uiso   1.00
H20    H     0.30065   0.71465   0.08365   0.00000  Uiso   1.00
O27    O     0.11334   0.10699   0.83407   0.00000  Uiso   1.00
O28    O     0.61334   0.60699   0.33407   0.00000  Uiso   1.00
H21    H     0.15405   0.10769   0.77855   0.00000  Uiso   1.00
H22    H     0.65405   0.60769   0.27855   0.00000  Uiso   1.00
H23    H     0.80064   0.21466   0.41640   0.00000  Uiso   1.00
H24    H     0.30064   0.71466   0.91640   0.00000  Uiso   1.00
H25    H     0.26699   0.10971   0.85516   0.00000  Uiso   1.00
H26    H     0.76700   0.60971   0.35516   0.00000  Uiso   1.00
H27    H     0.52109   0.11418   0.85517   0.00000  Uiso   1.00
H28    H     0.02109   0.61418   0.35517   0.00000  Uiso   1.00
H29    H     0.66432   0.11670   0.85516   0.00000  Uiso   1.00
H30    H     0.16432   0.61670   0.35516   0.00000  Uiso   1.00
H31    H     0.98744   0.00925   0.41638   0.00000  Uiso   1.00
H32    H     0.48744   0.50925   0.91638   0.00000  Uiso   1.00
