# Generated by REPEAT Assigner based on pymatgen
data_DB5-hypotheticalMOF_22855_0_0_1_13_9_6
_audit_creation_date              2022-05-24
_audit_creation_method            REPEAT_Assigner
_cell_length_a                    10.654545
_cell_length_b                    12.811415
_cell_length_c                    9.730223
_cell_angle_alpha                 84.564740
_cell_angle_beta                  89.997167
_cell_angle_gamma                 84.262263
_cell_volume                      1315.518008
_symmetry_space_group_name_H-M    P1
_symmetry_Int_Tables_number       1
loop_
    _symmetry_equiv_pos_site_id
    _symmetry_equiv_pos_as_xyz
    1  x,y,z
loop_
    _atom_site_type_symbol
    _atom_site_label
    _atom_site_fract_x
    _atom_site_fract_y
    _atom_site_fract_z
    _atom_type_partial_charge
    O   O1   0.667077  0.147404  0.867355  -0.609012
    O   O2   0.301525  0.161455  0.865598  -0.474783
    O   O3   0.493497  0.001703  0.885518  -0.614959
    O   O4   0.475104  0.307155  0.847435  -0.629939
    O   O5   0.493485  0.001699  0.114098  -0.616168
    O   O6   0.301512  0.161450  0.094179  -0.604134
    O   O7   0.667064  0.147399  0.095935  -0.611766
    Zn  Zn1  0.484286  0.154424  0.131349  0.890651
    Zn  Zn2  0.484303  0.154430  0.830185  0.901732
    O   O8   0.475092  0.307151  0.076016  -0.482569
    C   C1   0.254726  0.160422  0.980016  0.598910
    C   C2   0.115298  0.157338  0.980399  -0.018363
    C   C3   0.049794  0.155884  0.105180  -0.108664
    C   C4   0.918790  0.152969  0.105543  -0.068272
    C   C5   0.918804  0.152967  0.856333  -0.087009
    C   C6   0.049807  0.155874  0.855972  -0.014289
    C   C7   0.492460  0.962589  0.004681  0.853474
    C   C8   0.489373  0.846049  0.019202  -0.130116
    C   C9   0.483564  0.627073  0.797261  -0.254656
    C   C10  0.480664  0.517572  0.810898  -0.084884
    C   C11  0.480664  0.517547  0.060112  -0.188686
    C   C12  0.483564  0.627047  0.046475  0.267264
    C   C13  0.485016  0.681806  0.915045  0.176019
    C   C14  0.487925  0.791307  0.901410  -0.189044
    C   C15  0.487916  0.791281  0.150622  -0.015828
    C   C16  0.485016  0.681780  0.164259  -0.334033
    C   C17  0.713863  0.148432  0.981514  0.809843
    C   C18  0.853291  0.151516  0.981123  -0.098346
    C   C19  0.476129  0.346265  0.956849  0.648839
    C   C20  0.479216  0.462805  0.942319  -0.027315
    N   N1   0.484284  0.154420  0.336886  -0.030930
    N   N2   0.484314  0.154426  0.624649  -0.036851
    C   C21  0.569319  0.083712  0.417629  0.036302
    C   C22  0.569331  0.083712  0.561512  0.035825
    C   C23  0.399271  0.225137  0.543896  0.057226
    C   C24  0.399253  0.225131  0.400016  0.050590
    H   H1   0.865465  0.151776  0.755029  0.113049
    H   H2   0.489111  0.835890  0.794393  0.121183
    H   H3   0.865463  0.151786  0.207152  0.107389
    H   H4   0.489103  0.835856  0.246531  0.091244
    H   H5   0.484757  0.671657  0.690246  0.154687
    C   C25  0.662845  0.005919  0.348192  0.328366
    N   N3   0.733288  0.947319  0.295897  -0.340447
    H   H6   0.483829  0.637181  0.271265  0.171033
    H   H7   0.103113  0.157076  0.206496  0.107480
    C   C26  0.662866  0.005920  0.650324  0.321680
    N   N4   0.733316  0.947319  0.717217  -0.336981
    C   C27  0.121866  0.157468  0.718697  0.289965
    N   N5   0.176142  0.158663  0.615306  -0.452941
    H   H8   0.330042  0.282710  0.595310  0.170823
    H   H9   0.479477  0.473013  0.714986  0.113372
    H   H10  0.330002  0.282710  0.334270  0.171961
    C   C28  0.479039  0.457296  0.204673  0.346821
    N   N6   0.477809  0.411914  0.313557  -0.474742
