# Generated by REPEAT Assigner based on pymatgen
data_DB5-hypotheticalMOF_4998_0_0_0_1_2_12
_audit_creation_date              2022-05-24
_audit_creation_method            REPEAT_Assigner
_cell_length_a                    11.169417
_cell_length_b                    10.686285
_cell_length_c                    11.169409
_cell_angle_alpha                 85.599660
_cell_angle_beta                  89.980176
_cell_angle_gamma                 85.632710
_cell_volume                      1325.366214
_symmetry_space_group_name_H-M    P1
_symmetry_Int_Tables_number       1
loop_
    _symmetry_equiv_pos_site_id
    _symmetry_equiv_pos_as_xyz
    1  x,y,z
loop_
    _atom_site_type_symbol
    _atom_site_label
    _atom_site_fract_x
    _atom_site_fract_y
    _atom_site_fract_z
    _atom_type_partial_charge
    Zn  Zn1  0.871633  0.497780  0.358041  1.244239
    Zn  Zn2  0.886933  0.286728  0.574098  1.232156
    Zn  Zn3  0.670924  0.497703  0.558712  1.241410
    Zn  Zn4  0.686329  0.286831  0.373446  1.258722
    O   O1   0.778955  0.392260  0.466074  -1.554513
    O   O2   0.041613  0.469773  0.386694  -0.535382
    O   O3   0.858235  0.314639  0.740012  -0.551456
    O   O4   0.684699  0.674291  0.519207  -0.558618
    O   O5   0.052854  0.314714  0.545430  -0.542444
    O   O6   0.832159  0.674347  0.371775  -0.552918
    O   O7   0.699534  0.469642  0.728709  -0.546863
    O   O8   0.505017  0.469741  0.534144  -0.538173
    O   O9   0.710954  0.314889  0.203447  -0.560041
    O   O10  0.516335  0.314814  0.398030  -0.547091
    O   O11  0.847096  0.469872  0.192129  -0.558670
    O   O12  0.873172  0.110164  0.560367  -0.494160
    O   O13  0.725790  0.110240  0.412949  -0.534812
    C   C1   0.467129  0.392280  0.466088  0.570725
    C   C2   0.333730  0.392257  0.466068  -0.056108
    C   C3   0.802845  0.064418  0.489973  0.385223
    C   C4   0.813176  0.924165  0.500157  -0.048363
    C   C5   0.091999  0.392240  0.466060  0.574800
    C   C6   0.225399  0.392232  0.466053  -0.074219
    C   C7   0.779037  0.392401  0.153021  0.582536
    C   C8   0.779072  0.392460  0.019617  -0.049791
    C   C9   0.755004  0.721383  0.442056  0.552716
    C   C10  0.744797  0.861636  0.431821  -0.167009
    C   C11  0.778936  0.392212  0.777903  0.595036
    C   C12  0.779107  0.392508  0.911280  -0.083564
    H   H1   0.678353  0.915398  0.365523  0.155466
    C   C13  0.901974  0.852667  0.588488  0.218708
    C   C14  0.018356  0.884809  0.559940  0.451889
    C   C15  0.100192  0.818994  0.641290  -0.186350
    H   H2   0.897559  0.764742  0.583913  -0.082531
    H   H3   0.882966  0.874163  0.667618  -0.044113
    H   H4   0.037359  0.863304  0.480830  -0.137633
    H   H5   0.022810  0.972722  0.564523  -0.113775
    H   H6   0.081184  0.840491  0.720420  0.010411
    H   H7   0.095766  0.731073  0.636708  0.016927
    H   H8   0.179165  0.840802  0.621938  0.027630
