# Generated by REPEAT Assigner based on pymatgen
data_DB5-hypotheticalMOF_2620_1_0_0_25_7_6
_audit_creation_date              2022-05-24
_audit_creation_method            REPEAT_Assigner
_cell_length_a                    19.805406
_cell_length_b                    12.759401
_cell_length_c                    12.759393
_cell_angle_alpha                 89.981504
_cell_angle_beta                  90.022680
_cell_angle_gamma                 89.999873
_cell_volume                      3224.363482
_symmetry_space_group_name_H-M    P1
_symmetry_Int_Tables_number       1
loop_
    _symmetry_equiv_pos_site_id
    _symmetry_equiv_pos_as_xyz
    1  x,y,z
loop_
    _atom_site_type_symbol
    _atom_site_label
    _atom_site_fract_x
    _atom_site_fract_y
    _atom_site_fract_z
    _atom_type_partial_charge
    Zn  Zn1  0.269420  0.606363  0.405954  1.279584
    Zn  Zn2  0.382625  0.606302  0.581606  1.296025
    Zn  Zn3  0.269456  0.430665  0.581614  1.251801
    Zn  Zn4  0.382573  0.430699  0.405965  1.275425
    O   O1   0.326019  0.518507  0.493785  -1.575740
    O   O2   0.284444  0.753376  0.429246  -0.651185
    O   O3   0.367650  0.582964  0.728629  -0.571158
    O   O4   0.174734  0.453983  0.558311  -0.468023
    O   O5   0.367615  0.753332  0.558298  -0.611193
    O   O6   0.174708  0.583067  0.429254  -0.497429
    O   O7   0.284505  0.453924  0.728634  -0.541360
    O   O8   0.284454  0.283648  0.558322  -0.538855
    O   O9   0.367526  0.454040  0.258942  -0.616890
    O   O10  0.367561  0.283673  0.429273  -0.552100
    O   O11  0.284394  0.583100  0.258934  -0.580446
    O   O12  0.477335  0.582997  0.558308  -0.580171
    O   O13  0.477296  0.453982  0.429265  -0.549205
    C   C1   0.326006  0.245540  0.493799  0.479643
    C   C2   0.326017  0.128763  0.493780  0.081918
    C   C3   0.149476  0.518528  0.493782  0.281331
    C   C4   0.074244  0.518537  0.493781  0.320115
    C   C5   0.369360  0.073942  0.426696  -0.037198
    C   C6   0.369369  0.964218  0.426684  0.127186
    C   C7   0.282689  0.964146  0.560851  -0.157599
    C   C8   0.282678  0.073868  0.560856  -0.233640
    C   C9   0.419406  0.073982  0.349239  0.016790
    C   C10  0.419414  0.964258  0.349227  -0.179633
    C   C11  0.038912  0.451338  0.560972  -0.154003
    C   C12  0.968224  0.451344  0.560960  -0.175018
    C   C13  0.932868  0.518556  0.493763  0.237651
    C   C14  0.968205  0.585758  0.426565  -0.040709
    C   C15  0.038892  0.585746  0.426572  -0.258366
    C   C16  0.683132  0.585810  0.426534  -0.052387
    C   C17  0.612439  0.585820  0.426535  -0.246400
    C   C18  0.612463  0.451409  0.560922  -0.070520
    C   C19  0.683150  0.451396  0.560929  -0.207562
    C   C20  0.718481  0.518594  0.493728  0.239336
    C   C21  0.795129  0.518584  0.493740  -0.115925
    C   C22  0.856221  0.518572  0.493755  -0.127333
    C   C23  0.501875  0.518515  0.493764  0.493119
    C   C24  0.577106  0.518615  0.493721  0.243880
    C   C25  0.325950  0.518581  0.219751  0.529791
    C   C26  0.325921  0.518612  0.102975  0.060901
    C   C27  0.326032  0.792541  0.493770  0.599374
    C   C28  0.326037  0.909317  0.493764  0.034198
    C   C29  0.282630  0.585823  0.048107  -0.061581
    C   C30  0.282605  0.585848  0.938383  0.135044
    C   C31  0.369169  0.451448  0.938404  -0.093604
    C   C32  0.369190  0.451419  0.048126  -0.189219
    C   C33  0.232655  0.663421  0.048093  0.160577
    C   C34  0.232630  0.663445  0.938369  -0.241066
    C   C35  0.326038  0.518494  0.766752  0.526264
    C   C36  0.325876  0.518667  0.883528  0.033671
    H   H1   0.247379  0.118500  0.615476  0.190960
    H   H2   0.247404  0.919438  0.615461  0.137874
    H   H3   0.067658  0.640458  0.371851  0.190876
    H   H4   0.939457  0.396625  0.615671  0.162316
    H   H5   0.405426  0.103785  0.267835  0.082886
    C   C37  0.486641  0.119966  0.388781  0.323881
    N   N1   0.537283  0.154601  0.418566  -0.433550
    H   H6   0.400703  0.930253  0.271880  0.080760
    C   C38  0.161843  0.633976  0.088314  0.230859
    N   N2   0.108510  0.611795  0.118609  -0.390336
    C   C39  0.929311  0.659693  0.352648  0.342687
    N   N3   0.900017  0.715387  0.296976  -0.373683
    H   H7   0.471823  0.934483  0.371147  0.077537
    H   H8   0.404440  0.396686  0.092796  0.184069
    H   H9   0.182825  0.634312  0.904333  0.105891
    H   H10  0.711933  0.396669  0.615652  0.170878
    C   C40  0.077797  0.377398  0.634895  0.403176
    N   N4   0.107083  0.321700  0.690573  -0.454034
    C   C41  0.573593  0.377479  0.634836  0.314336
    N   N5   0.544318  0.321798  0.690507  -0.326030
    H   H11  0.583654  0.640553  0.371811  0.156714
    C   C42  0.416762  0.377539  0.878061  0.348167
    N   N6   0.452609  0.321868  0.832611  -0.382696
    C   C43  0.721986  0.659749  0.352630  0.353472
    N   N7   0.751253  0.715449  0.296967  -0.383228
    H   H12  0.251446  0.740700  0.082125  0.070748
    H   H13  0.246670  0.744822  0.908587  0.087366
