# Generated by REPEAT Assigner based on pymatgen
data_DB5-hypotheticalMOF_1917_0_0_0_21_2_4
_audit_creation_date              2022-05-24
_audit_creation_method            REPEAT_Assigner
_cell_length_a                    11.169417
_cell_length_b                    18.215405
_cell_length_c                    18.215399
_cell_angle_alpha                 89.969449
_cell_angle_beta                  89.983659
_cell_angle_gamma                 90.025764
_cell_volume                      3706.021226
_symmetry_space_group_name_H-M    P1
_symmetry_Int_Tables_number       1
loop_
    _symmetry_equiv_pos_site_id
    _symmetry_equiv_pos_as_xyz
    1  x,y,z
loop_
    _atom_site_type_symbol
    _atom_site_label
    _atom_site_fract_x
    _atom_site_fract_y
    _atom_site_fract_z
    _atom_type_partial_charge
    Zn  Zn1  0.834800  0.707025  0.583966  1.257241
    Zn  Zn2  0.834650  0.583954  0.707038  1.274877
    Zn  Zn3  0.634098  0.707000  0.707011  1.261695
    Zn  Zn4  0.634042  0.583994  0.584005  1.266614
    O   O1   0.734398  0.645494  0.645505  -1.592220
    O   O2   0.002730  0.690693  0.600286  -0.546870
    O   O3   0.808007  0.600249  0.810019  -0.564824
    O   O4   0.660807  0.809988  0.690661  -0.565085
    O   O5   0.002620  0.600273  0.690707  -0.553724
    O   O6   0.808262  0.810006  0.600260  -0.561038
    O   O7   0.660662  0.690651  0.809999  -0.540976
    O   O8   0.466141  0.690690  0.690699  -0.549072
    O   O9   0.660712  0.600342  0.481016  -0.567833
    O   O10  0.466100  0.600318  0.600328  -0.546283
    O   O11  0.808208  0.690732  0.480987  -0.539551
    O   O12  0.807953  0.480975  0.690745  -0.565840
    O   O13  0.660567  0.481005  0.600354  -0.530005
    C   C1   0.422573  0.645505  0.645515  0.571117
    C   C2   0.289173  0.645492  0.645501  -0.052925
    C   C3   0.734271  0.454287  0.645541  0.536298
    C   C4   0.734326  0.372488  0.645531  -0.019043
    C   C5   0.811250  0.184304  0.692511  -0.413725
    C   C6   0.811304  0.107445  0.692493  0.234090
    C   C7   0.657698  0.107436  0.598446  -0.403539
    C   C8   0.657651  0.184293  0.598461  0.226848
    C   C9   0.734426  0.222725  0.645497  0.251938
    C   C10  0.734526  0.069009  0.645465  0.228023
    C   C11  0.734584  0.985675  0.645445  -0.123635
    C   C12  0.734370  0.306064  0.645516  -0.152119
    C   C13  0.047440  0.645482  0.645495  0.586523
    C   C14  0.180840  0.645477  0.645491  -0.075801
    C   C15  0.734471  0.645544  0.453552  0.558560
    C   C16  0.734502  0.645566  0.371753  -0.040974
    C   C17  0.734557  0.837446  0.645453  0.589756
    C   C18  0.734626  0.919245  0.645431  -0.038418
    C   C19  0.811330  0.692676  0.183543  0.086876
    C   C20  0.811345  0.692698  0.106684  0.158431
    C   C21  0.657758  0.598569  0.106726  -0.164413
    C   C22  0.657739  0.598552  0.183583  -0.265549
    C   C23  0.734532  0.645605  0.221990  0.218449
    C   C24  0.734565  0.645643  0.068273  0.109822
    C   C25  0.734580  0.645666  0.984940  -0.151506
    C   C26  0.734515  0.645583  0.305329  -0.129195
    C   C27  0.734394  0.645496  0.836711  0.563209
    C   C28  0.734595  0.645682  0.918510  -0.019305
    H   H1   0.873767  0.215593  0.730810  0.200193
    H   H2   0.595189  0.076135  0.560152  0.199490
    O   O14  0.894157  0.066002  0.743205  -0.479556
    H   H3   0.947525  0.105641  0.775916  0.357883
    O   O15  0.574769  0.225742  0.547762  -0.480823
    H   H4   0.521372  0.186107  0.515063  0.360075
    O   O16  0.894143  0.743428  0.224971  -0.425620
    H   H5   0.947540  0.776168  0.185321  0.338298
    H   H6   0.595239  0.560259  0.075445  0.157107
    O   O17  0.894165  0.743473  0.065212  -0.423272
    H   H7   0.955201  0.710547  0.030190  0.315145
    H   H8   0.595191  0.560221  0.214887  0.174177
