# Generated by REPEAT Assigner based on pymatgen
data_DB5-hypotheticalMOF_16327_1_1_0_22_13_0
_audit_creation_date              2022-05-24
_audit_creation_method            REPEAT_Assigner
_cell_length_a                    14.908993
_cell_length_b                    17.637651
_cell_length_c                    14.909227
_cell_angle_alpha                 76.203306
_cell_angle_beta                  90.167019
_cell_angle_gamma                 105.097198
_cell_volume                      3668.664579
_symmetry_space_group_name_H-M    P1
_symmetry_Int_Tables_number       1
loop_
    _symmetry_equiv_pos_site_id
    _symmetry_equiv_pos_as_xyz
    1  x,y,z
loop_
    _atom_site_type_symbol
    _atom_site_label
    _atom_site_fract_x
    _atom_site_fract_y
    _atom_site_fract_z
    _atom_type_partial_charge
    Zn  Zn1  0.348706  0.772729  0.620116  1.313305
    Zn  Zn2  0.848706  0.272729  0.120116  1.313199
    Zn  Zn3  0.305006  0.629109  0.801633  1.331270
    Zn  Zn4  0.805006  0.129109  0.301633  1.331291
    Zn  Zn5  0.185870  0.757118  0.765185  1.308002
    Zn  Zn6  0.685870  0.257118  0.265185  1.308004
    Zn  Zn7  0.163625  0.630055  0.642453  1.312760
    Zn  Zn8  0.663625  0.130055  0.142453  1.312774
    O   O1   0.250802  0.697253  0.707347  -1.608637
    O   O2   0.750802  0.197253  0.207347  -1.608651
    O   O3   0.470225  0.759814  0.650101  -0.636712
    O   O4   0.970225  0.259814  0.150101  -0.636637
    O   O5   0.280224  0.639161  0.924127  -0.612258
    O   O6   0.780224  0.139161  0.424127  -0.612297
    O   O7   0.235068  0.872470  0.721339  -0.589203
    O   O8   0.735068  0.372470  0.221339  -0.589178
    O   O9   0.438119  0.654298  0.783461  -0.611318
    O   O10  0.938119  0.154298  0.283461  -0.611256
    O   O11  0.354703  0.883939  0.614758  -0.583889
    O   O12  0.854703  0.383939  0.114758  -0.583871
    O   O13  0.192695  0.733209  0.897349  -0.626773
    O   O14  0.692695  0.233209  0.397349  -0.626787
    O   O15  0.055603  0.734126  0.742998  -0.572908
    O   O16  0.555603  0.234126  0.242998  -0.572923
    O   O17  0.197155  0.655910  0.512161  -0.574847
    O   O18  0.697155  0.155910  0.012161  -0.574812
    O   O19  0.039260  0.640774  0.652827  -0.567062
    O   O20  0.539260  0.140774  0.152827  -0.567085
    O   O21  0.333133  0.760732  0.495750  -0.575211
    O   O22  0.833133  0.260732  0.995750  -0.575123
    O   O23  0.258654  0.515954  0.805120  -0.611226
    O   O24  0.758654  0.015954  0.305120  -0.611246
    O   O25  0.154781  0.516649  0.688170  -0.627784
    O   O26  0.654781  0.016649  0.188170  -0.627808
    C   C1   0.014419  0.685858  0.696381  0.418950
    C   C2   0.514419  0.185858  0.196381  0.419016
    C   C3   0.913291  0.680965  0.691672  0.275153
    C   C4   0.413291  0.180965  0.191672  0.275060
    C   C5   0.740275  0.769142  0.776522  -0.156990
    C   C6   0.240275  0.269142  0.276522  -0.157008
    C   C7   0.645256  0.764547  0.772101  -0.301969
    C   C8   0.145256  0.264547  0.272101  -0.301851
    C   C9   0.628231  0.667176  0.678413  -0.436115
    C   C10  0.128231  0.167176  0.178413  -0.436254
    C   C11  0.723250  0.671771  0.682835  0.231287
    C   C12  0.223250  0.171771  0.182835  0.231539
    C   C13  0.779269  0.722757  0.731890  0.174562
    C   C14  0.279269  0.222757  0.231890  0.174462
    C   C15  0.874291  0.727356  0.736306  -0.368485
    C   C16  0.374291  0.227356  0.236306  -0.368432
    C   C17  0.857263  0.629980  0.642624  -0.267197
    C   C18  0.357263  0.129980  0.142624  -0.267138
    C   C19  0.762245  0.625385  0.638202  -0.189846
    C   C20  0.262245  0.125385  0.138202  -0.189979
    C   C21  0.199588  0.486931  0.753005  0.510760
    C   C22  0.699588  0.986931  0.253005  0.510779
    C   C23  0.177764  0.396960  0.772512  0.326930
    C   C24  0.677764  0.896960  0.272512  0.326956
    C   C25  0.417208  0.131212  0.558900  -0.188062
    C   C26  0.917208  0.631212  0.058900  -0.188043
    C   C27  0.396671  0.046668  0.577244  -0.198209
    C   C28  0.896671  0.546668  0.077244  -0.198290
    C   C29  0.272165  0.034616  0.688343  -0.336036
    C   C30  0.772165  0.534616  0.188343  -0.336140
    C   C31  0.292694  0.119160  0.670012  0.088431
    C   C32  0.792694  0.619160  0.170012  0.088487
    C   C33  0.365216  0.167452  0.605289  0.185445
    C   C34  0.865216  0.667452  0.105289  0.185408
    C   C35  0.240702  0.155400  0.716400  0.063208
    C   C36  0.740702  0.655400  0.216400  0.063192
    C   C37  0.261227  0.239937  0.698067  0.026176
    C   C38  0.761227  0.739937  0.198067  0.026166
    C   C39  0.333744  0.288234  0.633345  -0.131873
    C   C40  0.833744  0.788234  0.133345  -0.131868
    C   C41  0.385741  0.251989  0.586956  -0.259409
    C   C42  0.885741  0.751989  0.086956  -0.259399
    C   C43  0.168176  0.107107  0.781118  -0.174037
    C   C44  0.668176  0.607107  0.281118  -0.174019
    C   C45  0.116185  0.143347  0.827506  -0.206807
    C   C46  0.616185  0.643347  0.327506  -0.206804
    C   C47  0.136714  0.227886  0.809178  0.097909
    C   C48  0.636714  0.727886  0.309178  0.097899
    C   C49  0.209231  0.276183  0.744456  0.154563
    C   C50  0.709231  0.776183  0.244456  0.154585
    C   C51  0.084717  0.264131  0.855568  -0.119523
    C   C52  0.584717  0.764131  0.355568  -0.119534
    C   C53  0.105242  0.348668  0.837234  -0.271158
    C   C54  0.605242  0.848668  0.337234  -0.271166
    C   C55  0.229756  0.360720  0.726123  -0.422993
    C   C56  0.729756  0.860720  0.226123  -0.423019
    C   C57  0.488107  0.708692  0.718355  0.534148
    C   C58  0.988107  0.208692  0.218355  0.534109
    C   C59  0.589232  0.713567  0.723046  0.336390
    C   C60  0.089232  0.213567  0.223046  0.336282
    C   C61  0.267537  0.710168  0.470017  0.420533
    C   C62  0.767537  0.210168  0.970017  0.420534
    C   C63  0.274669  0.715671  0.368882  0.263709
    C   C64  0.774669  0.215671  0.868882  0.263484
    C   C65  0.302241  0.908399  0.661491  0.453373
    C   C66  0.802241  0.408399  0.161491  0.453287
    C   C67  0.324162  0.998376  0.641950  0.218829
    C   C68  0.824162  0.498376  0.141950  0.218989
    C   C69  0.355509  0.777997  0.217791  -0.171522
    C   C70  0.855509  0.277997  0.717791  -0.171514
    C   C71  0.348814  0.772830  0.312817  -0.275903
    C   C72  0.848814  0.272830  0.812817  -0.275838
    C   C73  0.207216  0.663676  0.329916  -0.352816
    C   C74  0.707216  0.163676  0.829916  -0.352605
    C   C75  0.213911  0.668843  0.234890  0.151249
    C   C76  0.713911  0.168843  0.734890  0.151158
    C   C77  0.288060  0.726007  0.178831  0.212923
    C   C78  0.788060  0.226007  0.678831  0.212974
    C   C79  0.294751  0.731178  0.083803  -0.423807
    C   C80  0.794751  0.231178  0.583803  -0.423837
    C   C81  0.153157  0.622021  0.100904  -0.319316
    C   C82  0.653157  0.122021  0.600904  -0.319278
    C   C83  0.146462  0.616853  0.195930  -0.131196
    C   C84  0.646462  0.116853  0.695930  -0.131218
    C   C85  0.234198  0.684449  0.943743  0.523469
    C   C86  0.734198  0.184449  0.443743  0.523519
    C   C87  0.227298  0.679182  0.044836  0.336444
    C   C88  0.727298  0.179182  0.544836  0.336443
    H   H1   0.919903  0.768876  0.776242  0.175056
    H   H2   0.419903  0.268876  0.276242  0.175059
    H   H3   0.716620  0.583871  0.598266  0.125747
    H   H4   0.216620  0.083871  0.098266  0.125773
    H   H5   0.213115  0.995286  0.741038  0.184864
    H   H6   0.713115  0.495286  0.241038  0.184881
    H   H7   0.057135  0.104017  0.880202  0.120157
    H   H8   0.557135  0.604017  0.380202  0.120151
    H   H9   0.403738  0.815165  0.344534  0.172863
    H   H10  0.903738  0.315165  0.844534  0.172847
    H   H11  0.439002  0.017166  0.539451  0.124968
    H   H12  0.939002  0.517166  0.039451  0.124987
    H   H13  0.785890  0.810667  0.816452  0.126473
    H   H14  0.285890  0.310667  0.316452  0.126472
    H   H15  0.415876  0.824550  0.172145  0.123864
    H   H16  0.915876  0.324550  0.672145  0.123852
    H   H17  0.151460  0.038272  0.796034  0.124672
    H   H18  0.651460  0.538272  0.296034  0.124667
    H   H19  0.582602  0.625658  0.638485  0.169509
    H   H20  0.082602  0.125658  0.138485  0.169542
    H   H21  0.146853  0.617130  0.375577  0.173156
    H   H22  0.646853  0.117130  0.875577  0.173106
    H   H23  0.098227  0.579694  0.069171  0.172615
    H   H24  0.598227  0.079694  0.569171  0.172602
    H   H25  0.889023  0.592214  0.606275  0.160732
    H   H26  0.389023  0.092214  0.106275  0.160733
    H   H27  0.613512  0.802320  0.808444  0.150187
    H   H28  0.113512  0.302320  0.308444  0.150159
    H   H29  0.086095  0.570310  0.241586  0.118349
    H   H30  0.586095  0.070310  0.741586  0.118356
    H   H31  0.025664  0.224800  0.908258  0.128128
    H   H32  0.525664  0.724800  0.408258  0.128137
    H   H33  0.288817  0.400041  0.673426  0.180002
    H   H34  0.788817  0.900041  0.173426  0.180009
    H   H35  0.350455  0.357070  0.618420  0.114048
    H   H36  0.850455  0.857070  0.118420  0.114046
    H   H37  0.476269  0.170533  0.506203  0.136384
    H   H38  0.976269  0.670533  0.006203  0.136393
    H   H39  0.444802  0.291310  0.534259  0.136807
    H   H40  0.944802  0.791310  0.034259  0.136803
    H   H41  0.062904  0.378175  0.875008  0.141250
    H   H42  0.562904  0.878175  0.375008  0.141254
    H   H43  0.355123  0.777727  0.038159  0.171486
    H   H44  0.855123  0.277727  0.538159  0.171489
