# Generated by REPEAT Assigner based on pymatgen
data_DB5-hypotheticalMOF_27075_0_0_1_22_11_4
_audit_creation_date              2022-05-24
_audit_creation_method            REPEAT_Assigner
_cell_length_a                    15.538191
_cell_length_b                    11.026607
_cell_length_c                    10.065875
_cell_angle_alpha                 79.268236
_cell_angle_beta                  95.241317
_cell_angle_gamma                 77.929055
_cell_volume                      1641.685565
_symmetry_space_group_name_H-M    P1
_symmetry_Int_Tables_number       1
loop_
    _symmetry_equiv_pos_site_id
    _symmetry_equiv_pos_as_xyz
    1  x,y,z
loop_
    _atom_site_type_symbol
    _atom_site_label
    _atom_site_fract_x
    _atom_site_fract_y
    _atom_site_fract_z
    _atom_type_partial_charge
    O   O1   0.802266  0.388991  0.886483  -0.640824
    O   O2   0.054415  0.258610  0.886487  -0.741788
    O   O3   0.949239  0.491248  0.886490  -0.728419
    O   O4   0.907442  0.156353  0.886480  -0.606915
    O   O5   0.969272  0.446754  0.113478  -0.820011
    O   O6   0.074449  0.214116  0.113475  -0.709479
    O   O7   0.822299  0.344498  0.113471  -0.692553
    Zn  Zn1  0.951554  0.272243  0.149512  0.993441
    Zn  Zn2  0.925160  0.330865  0.850446  0.955659
    O   O8   0.927475  0.111860  0.113468  -0.641847
    C   C1   0.097214  0.222722  0.999981  0.944315
    C   C2   0.194898  0.182089  0.999982  0.001372
    C   C3   0.966966  0.510816  0.999983  1.104191
    C   C4   0.989951  0.635406  0.999978  -0.425919
    C   C5   0.779500  0.380386  0.999974  0.802289
    C   C6   0.681815  0.421021  0.999964  0.095718
    C   C7   0.551141  0.585767  0.999974  0.324035
    C   C8   0.642927  0.547558  0.999972  -0.415131
    C   C9   0.628925  0.332641  0.999965  -0.451532
    C   C10  0.537136  0.370831  0.999974  0.333615
    C   C11  0.498252  0.497395  0.999977  -0.030731
    C   C12  0.484247  0.282460  0.999977  -0.337164
    C   C13  0.392465  0.320648  0.999979  0.283138
    C   C14  0.353573  0.447207  0.999977  -0.292273
    C   C15  0.406470  0.535584  0.999978  -0.135539
    C   C16  0.523132  0.155898  0.999965  0.520767
    C   C17  0.470243  0.067526  0.999968  -0.672071
    C   C18  0.378461  0.105712  0.999979  0.454695
    C   C19  0.339569  0.232272  0.999978  -0.116804
    C   C20  0.325564  0.017336  0.999978  -0.350419
    C   C21  0.233783  0.055524  0.999980  -0.096189
    C   C22  0.247787  0.270460  0.999979  -0.229384
    C   C23  0.909748  0.092292  0.999972  0.862762
    C   C24  0.886762  0.967704  0.999968  -0.358117
    N   N1   0.969562  0.232238  0.353617  -0.013728
    C   C25  0.926484  0.737168  0.999975  -0.011903
    C   C26  0.950239  0.865940  0.999971  -0.131562
    N   N2   0.907147  0.370881  0.646341  -0.012093
    C   C27  0.931432  0.316951  0.421397  0.244181
    C   C28  0.945283  0.286157  0.578564  0.267064
    H   H1   0.216126  0.373520  0.999990  0.105677
    O   O9   0.850320  0.497161  0.569102  -0.295542
    H   H2   0.879001  0.574787  0.596455  0.333167
    H   H3   0.022166  0.874145  0.999963  0.143187
    H   H4   0.501915  0.964478  0.999960  0.253446
    H   H5   0.854562  0.728955  0.999983  0.086190
    O   O10  0.002102  0.159867  0.655789  -0.283786
    H   H6   0.058564  0.175739  0.720920  0.267633
    H   H7   0.814825  0.959522  0.999864  0.172387
    H   H8   0.278837  0.478302  0.999960  0.150163
    O   O11  0.622126  0.114706  0.999965  -0.524219
    H   H9   0.651464  0.040099  0.092474  0.316206
    O   O12  0.026370  0.105951  0.430853  -0.349205
    H   H10  0.094764  0.095324  0.403543  0.323168
    H   H11  0.374809  0.638643  0.999989  0.148210
    H   H12  0.061873  0.643619  0.999970  0.159311
    H   H13  0.357237  0.914290  0.999962  0.188989
    O   O13  0.509188  0.722275  0.999980  -0.537586
    H   H14  0.561383  0.777318  0.999974  0.307049
    H   H15  0.685988  0.619531  0.999967  0.171673
    H   H16  0.660597  0.229594  0.999957  0.260451
    O   O14  0.874636  0.443245  0.344158  -0.454425
    H   H17  0.872681  0.447621  0.232834  0.437857
    H   H18  0.190720  0.983561  0.999995  0.095151
