data_DB5-hypotheticalMOF_16123_0_0_0_22_1_5_repeat
_audit_creation_date              2024-02-23
_audit_creation_method            'Materials Studio'
_symmetry_space_group_name_H-M    'P1'
_symmetry_Int_Tables_number       1
_symmetry_cell_setting            triclinic
loop_
_symmetry_equiv_pos_as_xyz
  x,y,z
_cell_length_a                    10.6862
_cell_length_b                    17.6377
_cell_length_c                    10.6866
_cell_angle_alpha                 75.3778
_cell_angle_beta                  90.3081
_cell_angle_gamma                 106.3615
loop_
_atom_site_label
_atom_site_type_symbol
_atom_site_fract_x
_atom_site_fract_y
_atom_site_fract_z
_atom_site_U_iso_or_equiv
_atom_site_adp_type
_atom_site_occupancy
Zn1    Zn    0.90357   0.80110   0.49662   0.00000  Uiso   1.00
Zn2    Zn    0.83633   0.65343   0.75019   0.00000  Uiso   1.00
Zn3    Zn    0.67048   0.78023   0.69650   0.00000  Uiso   1.00
Zn4    Zn    0.64333   0.65508   0.52393   0.00000  Uiso   1.00
O1     O     0.76343   0.72246   0.61681   0.00000  Uiso   1.00
O2     O     0.07297   0.78955   0.54131   0.00000  Uiso   1.00
O3     O     0.79755   0.66082   0.92141   0.00000  Uiso   1.00
O4     O     0.74091   0.89717   0.63609   0.00000  Uiso   1.00
O5     O     0.02357   0.68106   0.72760   0.00000  Uiso   1.00
O6     O     0.91216   0.91250   0.48924   0.00000  Uiso   1.00
O7     O     0.67570   0.75398   0.88196   0.00000  Uiso   1.00
O8     O     0.48856   0.75558   0.66256   0.00000  Uiso   1.00
O9     O     0.69463   0.68388   0.34196   0.00000  Uiso   1.00
O10    O     0.46861   0.66364   0.53577   0.00000  Uiso   1.00
O11    O     0.88583   0.79115   0.32190   0.00000  Uiso   1.00
O12    O     0.77122   0.53947   0.75407   0.00000  Uiso   1.00
O13    O     0.62942   0.54069   0.58784   0.00000  Uiso   1.00
C1     C     0.43235   0.70753   0.59630   0.00000  Uiso   1.00
C2     C     0.29071   0.70112   0.58750   0.00000  Uiso   1.00
C3     C     0.69012   0.51048   0.67972   0.00000  Uiso   1.00
C4     C     0.65887   0.41980   0.70660   0.00000  Uiso   1.00
C5     C     0.00164   0.16180   0.41228   0.00000  Uiso   1.00
C6     C     0.97224   0.07659   0.43755   0.00000  Uiso   1.00
C7     C     0.79401   0.06051   0.59063   0.00000  Uiso   1.00
C8     C     0.82339   0.14572   0.56537   0.00000  Uiso   1.00
C9     C     0.92721   0.19636   0.47619   0.00000  Uiso   1.00
C10    C     0.74897   0.18028   0.62929   0.00000  Uiso   1.00
C11    C     0.77835   0.26548   0.60403   0.00000  Uiso   1.00
C12    C     0.88216   0.31612   0.51485   0.00000  Uiso   1.00
C13    C     0.95659   0.28156   0.45093   0.00000  Uiso   1.00
C14    C     0.64515   0.12964   0.71846   0.00000  Uiso   1.00
C15    C     0.57072   0.16420   0.78237   0.00000  Uiso   1.00
C16    C     0.60011   0.24940   0.75712   0.00000  Uiso   1.00
C17    C     0.70392   0.30004   0.66794   0.00000  Uiso   1.00
C18    C     0.52568   0.28397   0.82103   0.00000  Uiso   1.00
C19    C     0.55506   0.36917   0.79577   0.00000  Uiso   1.00
C20    C     0.73330   0.38525   0.64268   0.00000  Uiso   1.00
C21    C     0.09580   0.73745   0.63740   0.00000  Uiso   1.00
C22    C     0.23744   0.74384   0.64617   0.00000  Uiso   1.00
C23    C     0.79470   0.74003   0.28440   0.00000  Uiso   1.00
C24    C     0.80803   0.74752   0.14274   0.00000  Uiso   1.00
C25    C     0.83706   0.93527   0.55363   0.00000  Uiso   1.00
C26    C     0.86844   0.02595   0.52671   0.00000  Uiso   1.00
C27    C     0.73237   0.70502   0.94792   0.00000  Uiso   1.00
C28    C     0.71937   0.69777   0.08952   0.00000  Uiso   1.00
H1     H     0.81785   0.42648   0.57007   0.00000  Uiso   1.00
H2     H     0.03283   0.04846   0.38548   0.00000  Uiso   1.00
N1     N     0.68204   0.00589   0.68681   0.00000  Uiso   1.00
H3     H     0.67472   0.94668   0.69312   0.00000  Uiso   1.00
H4     H     0.69854   0.01687   0.77463   0.00000  Uiso   1.00
N2     N     0.92208   0.81153   0.05955   0.00000  Uiso   1.00
H5     H     0.97935   0.84366   0.11519   0.00000  Uiso   1.00
H6     H     0.97471   0.78387   0.01784   0.00000  Uiso   1.00
N3     N     0.06856   0.33618   0.35474   0.00000  Uiso   1.00
H7     H     0.07587   0.39540   0.34843   0.00000  Uiso   1.00
H8     H     0.15261   0.32439   0.38453   0.00000  Uiso   1.00
H9     H     0.62122   0.06026   0.73901   0.00000  Uiso   1.00
H10    H     0.08618   0.20303   0.33967   0.00000  Uiso   1.00
H11    H     0.63327   0.64946   0.15232   0.00000  Uiso   1.00
H12    H     0.30019   0.78531   0.70313   0.00000  Uiso   1.00
H13    H     0.22794   0.65964   0.53055   0.00000  Uiso   1.00
N4     N     0.45876   0.10958   0.87856   0.00000  Uiso   1.00
H14    H     0.45144   0.05036   0.88487   0.00000  Uiso   1.00
H15    H     0.47526   0.12056   0.96638   0.00000  Uiso   1.00
N5     N     0.41370   0.22935   0.91721   0.00000  Uiso   1.00
H16    H     0.40638   0.17013   0.92351   0.00000  Uiso   1.00
H17    H     0.43019   0.24032   0.00504   0.00000  Uiso   1.00
H18    H     0.90608   0.38550   0.49428   0.00000  Uiso   1.00
H19    H     0.49445   0.39731   0.84782   0.00000  Uiso   1.00
