data_DB5-hypotheticalMOF_16369_1_0_0_22_13_5_repeat
_audit_creation_date              2024-02-23
_audit_creation_method            'Materials Studio'
_symmetry_space_group_name_H-M    'P1'
_symmetry_Int_Tables_number       1
_symmetry_cell_setting            triclinic
loop_
_symmetry_equiv_pos_as_xyz
  x,y,z
_cell_length_a                    14.9088
_cell_length_b                    17.6377
_cell_length_c                    14.9092
_cell_angle_alpha                 76.2026
_cell_angle_beta                  83.5851
_cell_angle_gamma                 103.7622
loop_
_atom_site_label
_atom_site_type_symbol
_atom_site_fract_x
_atom_site_fract_y
_atom_site_fract_z
_atom_site_U_iso_or_equiv
_atom_site_adp_type
_atom_site_occupancy
Zn1    Zn    0.35985   0.78115   0.46186   0.00000  Uiso   1.00
Zn2    Zn    0.31579   0.63726   0.64851   0.00000  Uiso   1.00
Zn3    Zn    0.19567   0.76452   0.62604   0.00000  Uiso   1.00
Zn4    Zn    0.17324   0.63732   0.50591   0.00000  Uiso   1.00
O1     O     0.26113   0.70506   0.56058   0.00000  Uiso   1.00
O2     O     0.48237   0.76899   0.47759   0.00000  Uiso   1.00
O3     O     0.29080   0.64715   0.77391   0.00000  Uiso   1.00
O4     O     0.24527   0.88018   0.57642   0.00000  Uiso   1.00
O5     O     0.45000   0.66327   0.61471   0.00000  Uiso   1.00
O6     O     0.36589   0.89240   0.45580   0.00000  Uiso   1.00
O7     O     0.20255   0.74065   0.75740   0.00000  Uiso   1.00
O8     O     0.06432   0.74072   0.61913   0.00000  Uiso   1.00
O9     O     0.20704   0.66339   0.37169   0.00000  Uiso   1.00
O10    O     0.04784   0.64726   0.53088   0.00000  Uiso   1.00
O11    O     0.34414   0.76906   0.33932   0.00000  Uiso   1.00
O12    O     0.26905   0.52381   0.65743   0.00000  Uiso   1.00
O13    O     0.16432   0.52386   0.55267   0.00000  Uiso   1.00
C1     C     0.02280   0.69219   0.57735   0.00000  Uiso   1.00
C2     C     0.92083   0.68667   0.58451   0.00000  Uiso   1.00
C3     C     0.76291   0.78624   0.45502   0.00000  Uiso   1.00
C4     C     0.66711   0.78105   0.46174   0.00000  Uiso   1.00
C5     C     0.63342   0.67111   0.60468   0.00000  Uiso   1.00
C6     C     0.72923   0.67630   0.59795   0.00000  Uiso   1.00
C7     C     0.79397   0.73386   0.52312   0.00000  Uiso   1.00
C8     C     0.88977   0.73905   0.51640   0.00000  Uiso   1.00
C9     C     0.85608   0.62911   0.65933   0.00000  Uiso   1.00
C10    C     0.76028   0.62392   0.66606   0.00000  Uiso   1.00
C11    C     0.20950   0.49442   0.61225   0.00000  Uiso   1.00
C12    C     0.18749   0.40431   0.63431   0.00000  Uiso   1.00
C13    C     0.42891   0.14006   0.39261   0.00000  Uiso   1.00
C14    C     0.40821   0.05539   0.41336   0.00000  Uiso   1.00
C15    C     0.28267   0.04256   0.53907   0.00000  Uiso   1.00
C16    C     0.30337   0.12723   0.51833   0.00000  Uiso   1.00
C17    C     0.37649   0.17598   0.44510   0.00000  Uiso   1.00
C18    C     0.25095   0.16315   0.57082   0.00000  Uiso   1.00
C19    C     0.27165   0.24781   0.55008   0.00000  Uiso   1.00
C20    C     0.34476   0.29656   0.47684   0.00000  Uiso   1.00
C21    C     0.39719   0.26064   0.42435   0.00000  Uiso   1.00
C22    C     0.17783   0.11440   0.64405   0.00000  Uiso   1.00
C23    C     0.12541   0.15031   0.69653   0.00000  Uiso   1.00
C24    C     0.14611   0.23498   0.67580   0.00000  Uiso   1.00
C25    C     0.21922   0.28373   0.60257   0.00000  Uiso   1.00
C26    C     0.09368   0.27090   0.72829   0.00000  Uiso   1.00
C27    C     0.11437   0.35557   0.70755   0.00000  Uiso   1.00
C28    C     0.23991   0.36840   0.58183   0.00000  Uiso   1.00
C29    C     0.50040   0.71798   0.54374   0.00000  Uiso   1.00
C30    C     0.60236   0.72349   0.53657   0.00000  Uiso   1.00
C31    C     0.27800   0.71808   0.32129   0.00000  Uiso   1.00
C32    C     0.28519   0.72363   0.21931   0.00000  Uiso   1.00
C33    C     0.31300   0.91653   0.50869   0.00000  Uiso   1.00
C34    C     0.33510   0.00664   0.48658   0.00000  Uiso   1.00
C35    C     0.15594   0.62401   0.06140   0.00000  Uiso   1.00
C36    C     0.16269   0.62922   0.96559   0.00000  Uiso   1.00
C37    C     0.30545   0.73926   0.93188   0.00000  Uiso   1.00
C38    C     0.29870   0.73405   0.02769   0.00000  Uiso   1.00
C39    C     0.22394   0.67642   0.09245   0.00000  Uiso   1.00
C40    C     0.21719   0.67121   0.18826   0.00000  Uiso   1.00
C41    C     0.35995   0.78125   0.15455   0.00000  Uiso   1.00
C42    C     0.36670   0.78646   0.05874   0.00000  Uiso   1.00
C43    C     0.24440   0.69215   0.79892   0.00000  Uiso   1.00
C44    C     0.23744   0.68684   0.90083   0.00000  Uiso   1.00
H1     H     0.64183   0.82370   0.40629   0.00000  Uiso   1.00
H2     H     0.22314   0.00286   0.59869   0.00000  Uiso   1.00
H3     H     0.58069   0.62425   0.66561   0.00000  Uiso   1.00
H4     H     0.42757   0.83338   0.00600   0.00000  Uiso   1.00
H5     H     0.29946   0.40809   0.52220   0.00000  Uiso   1.00
N1     N     0.13655   0.60906   0.25810   0.00000  Uiso   1.00
H6     H     0.16182   0.57134   0.30445   0.00000  Uiso   1.00
H7     H     0.09934   0.63760   0.29269   0.00000  Uiso   1.00
H8     H     0.70756   0.57705   0.72698   0.00000  Uiso   1.00
N2     N     0.83274   0.84831   0.37431   0.00000  Uiso   1.00
H9     H     0.86739   0.81976   0.33716   0.00000  Uiso   1.00
H10    H     0.79846   0.88068   0.33225   0.00000  Uiso   1.00
H11    H     0.36632   0.78617   0.87914   0.00000  Uiso   1.00
H12    H     0.88138   0.58645   0.71478   0.00000  Uiso   1.00
N3     N     0.08935   0.57269   0.93209   0.00000  Uiso   1.00
H13    H     0.08821   0.51462   0.96198   0.00000  Uiso   1.00
H14    H     0.02576   0.58090   0.95029   0.00000  Uiso   1.00
N4     N     0.07531   0.56185   0.13125   0.00000  Uiso   1.00
H15    H     0.08135   0.56650   0.19666   0.00000  Uiso   1.00
H16    H     0.01407   0.57184   0.11602   0.00000  Uiso   1.00
H17    H     0.94249   0.78592   0.45547   0.00000  Uiso   1.00
N5     N     0.36710   0.38788   0.45446   0.00000  Uiso   1.00
H18    H     0.31032   0.40576   0.43709   0.00000  Uiso   1.00
H19    H     0.38459   0.40570   0.51122   0.00000  Uiso   1.00
N6     N     0.43329   0.83780   0.18803   0.00000  Uiso   1.00
H20    H     0.41767   0.82576   0.25855   0.00000  Uiso   1.00
H21    H     0.49690   0.82964   0.16977   0.00000  Uiso   1.00
N7     N     0.47606   0.31322   0.34538   0.00000  Uiso   1.00
H22    H     0.50614   0.27763   0.31527   0.00000  Uiso   1.00
H23    H     0.45027   0.34863   0.29698   0.00000  Uiso   1.00
H24    H     0.03414   0.23120   0.78791   0.00000  Uiso   1.00
N8     N     0.50779   0.19264   0.31363   0.00000  Uiso   1.00
H25    H     0.53787   0.15705   0.28353   0.00000  Uiso   1.00
H26    H     0.48199   0.22805   0.26523   0.00000  Uiso   1.00
H27    H     0.07169   0.38481   0.75029   0.00000  Uiso   1.00
N9     N     0.46476   0.01665   0.35675   0.00000  Uiso   1.00
H28    H     0.51422   0.06038   0.30721   0.00000  Uiso   1.00
H29    H     0.49603   0.98181   0.39968   0.00000  Uiso   1.00
N10    N     0.15549   0.02308   0.66642   0.00000  Uiso   1.00
H30    H     0.13803   0.00520   0.60969   0.00000  Uiso   1.00
H31    H     0.21229   0.00526   0.68383   0.00000  Uiso   1.00
H32    H     0.06587   0.11062   0.75616   0.00000  Uiso   1.00
