# Generated by REPEAT Assigner based on pymatgen
data_DB5-hypotheticalMOF_10493_1_1_0_6_2_2
_audit_creation_date              2022-05-24
_audit_creation_method            REPEAT_Assigner
_cell_length_a                    11.169417
_cell_length_b                    12.759400
_cell_length_c                    11.169409
_cell_angle_alpha                 89.966206
_cell_angle_beta                  89.980176
_cell_angle_gamma                 90.015563
_cell_volume                      1591.808555
_symmetry_space_group_name_H-M    P1
_symmetry_Int_Tables_number       1
loop_
    _symmetry_equiv_pos_site_id
    _symmetry_equiv_pos_as_xyz
    1  x,y,z
loop_
    _atom_site_type_symbol
    _atom_site_label
    _atom_site_fract_x
    _atom_site_fract_y
    _atom_site_fract_z
    _atom_type_partial_charge
    Zn  Zn1  0.834926  0.581843  0.321469  1.300525
    Zn  Zn2  0.334926  0.081843  0.821469  1.300542
    Zn  Zn3  0.834800  0.406118  0.522158  1.257399
    Zn  Zn4  0.334800  0.906118  0.022158  1.257414
    Zn  Zn5  0.634212  0.581779  0.522135  1.297511
    Zn  Zn6  0.134212  0.081779  0.022135  1.297514
    Zn  Zn7  0.634204  0.406203  0.321513  1.288264
    Zn  Zn8  0.134204  0.906203  0.821513  1.288245
    O   O1   0.734536  0.493986  0.421819  -1.614230
    O   O2   0.234536  0.993986  0.921819  -1.614241
    O   O3   0.002859  0.558524  0.348082  -0.573146
    O   O4   0.502859  0.058524  0.848082  -0.573157
    O   O5   0.808142  0.429357  0.690104  -0.570760
    O   O6   0.308142  0.929357  0.190104  -0.570760
    O   O7   0.660893  0.728809  0.495489  -0.609095
    O   O8   0.160893  0.228809  0.995489  -0.609102
    O   O9   0.002767  0.429419  0.495527  -0.574971
    O   O10  0.502767  0.929419  0.995527  -0.574976
    O   O11  0.808357  0.728856  0.348061  -0.608712
    O   O12  0.308357  0.228856  0.848061  -0.608716
    O   O13  0.660771  0.558415  0.690088  -0.568232
    O   O14  0.160771  0.058415  0.190088  -0.568226
    O   O15  0.466261  0.558498  0.495531  -0.573200
    O   O16  0.966261  0.058498  0.995531  -0.573204
    O   O17  0.660880  0.429565  0.153557  -0.634923
    O   O18  0.160880  0.929565  0.653557  -0.634918
    O   O19  0.466256  0.429503  0.348134  -0.631168
    O   O20  0.966256  0.929503  0.848134  -0.631160
    O   O21  0.808349  0.558607  0.153525  -0.578238
    O   O22  0.308349  0.058607  0.653525  -0.578242
    O   O23  0.808135  0.259108  0.495569  -0.558125
    O   O24  0.308135  0.759108  0.995569  -0.558131
    O   O25  0.660758  0.259171  0.348156  -0.638054
    O   O26  0.160758  0.759171  0.848156  -0.638053
    C   C1   0.422711  0.494002  0.421834  0.668671
    C   C2   0.922711  0.994002  0.921834  0.668671
    C   C3   0.289311  0.493983  0.421812  -0.153943
    C   C4   0.789311  0.993983  0.921812  -0.153941
    C   C5   0.734464  0.221019  0.421844  0.540079
    C   C6   0.234464  0.721019  0.921844  0.540081
    C   C7   0.734544  0.104242  0.421814  0.041794
    C   C8   0.234544  0.604242  0.921814  0.041800
    C   C9   0.811368  0.049382  0.498487  0.124549
    C   C10  0.311368  0.549382  0.998487  0.124542
    C   C11  0.811442  0.939658  0.498450  0.021978
    C   C12  0.311442  0.439658  0.998450  0.021988
    C   C13  0.657857  0.939663  0.345064  -0.230375
    C   C14  0.157857  0.439663  0.845064  -0.230376
    C   C15  0.657790  0.049385  0.345096  -0.151878
    C   C16  0.157790  0.549385  0.845096  -0.151881
    C   C17  0.888122  0.104239  0.575206  -0.362170
    C   C18  0.388122  0.604239  0.075206  -0.362168
    C   C19  0.964952  0.049379  0.651886  0.156236
    C   C20  0.464952  0.549379  0.151886  0.156223
    C   C21  0.965025  0.939655  0.651849  0.223008
    C   C22  0.465025  0.439655  0.151849  0.223029
    C   C23  0.888270  0.884791  0.575132  -0.292221
    C   C24  0.388270  0.384791  0.075132  -0.292234
    C   C25  0.047578  0.493969  0.421802  0.581660
    C   C26  0.547578  0.993969  0.921802  0.581666
    C   C27  0.180978  0.493962  0.421796  -0.011288
    C   C28  0.680978  0.993962  0.921796  -0.011288
    C   C29  0.734628  0.494103  0.108776  0.675742
    C   C30  0.234628  0.994103  0.608776  0.675743
    C   C31  0.734667  0.494152  0.975376  -0.166829
    C   C32  0.234667  0.994152  0.475376  -0.166825
    C   C33  0.734640  0.768019  0.421767  0.678613
    C   C34  0.234640  0.268019  0.921767  0.678625
    C   C35  0.734684  0.884796  0.421745  0.077289
    C   C36  0.234684  0.384796  0.921745  0.077284
    C   C37  0.734513  0.493946  0.733643  0.574047
    C   C38  0.234513  0.993946  0.233643  0.574047
    C   C39  0.734706  0.494192  0.867043  0.002539
    C   C40  0.234706  0.994192  0.367043  0.002534
    H   H1   0.888067  0.193581  0.575248  0.226335
    H   H2   0.388067  0.693581  0.075248  0.226340
    H   H3   0.027592  0.894991  0.714277  0.115934
    H   H4   0.527592  0.394991  0.214277  0.115925
    Cl  Cl1  0.061450  0.118349  0.748314  -0.151229
    Cl  Cl2  0.561450  0.618349  0.248314  -0.151222
    H   H5   0.888345  0.795446  0.575098  0.079291
    H   H6   0.388345  0.295446  0.075098  0.079294
    H   H7   0.595365  0.894984  0.282605  0.148185
    H   H8   0.095365  0.394984  0.782605  0.148185
    H   H9   0.595233  0.094053  0.282660  0.173131
    H   H10  0.095233  0.594053  0.782660  0.173131
