data_DB5-hypotheticalMOF_11271_0_0_0_6_13_5_repeat
_audit_creation_date              2024-02-23
_audit_creation_method            'Materials Studio'
_symmetry_space_group_name_H-M    'P1'
_symmetry_Int_Tables_number       1
_symmetry_cell_setting            triclinic
loop_
_symmetry_equiv_pos_as_xyz
  x,y,z
_cell_length_a                    12.7594
_cell_length_b                    14.9086
_cell_length_c                    14.9083
_cell_angle_alpha                 90.1751
_cell_angle_beta                  86.7309
_cell_angle_gamma                 93.2890
loop_
_atom_site_label
_atom_site_type_symbol
_atom_site_fract_x
_atom_site_fract_y
_atom_site_fract_z
_atom_site_U_iso_or_equiv
_atom_site_adp_type
_atom_site_occupancy
Zn1    Zn    0.45172   0.65466   0.58760   0.00000  Uiso   1.00
Zn2    Zn    0.28554   0.64606   0.43724   0.00000  Uiso   1.00
Zn3    Zn    0.47190   0.79634   0.42859   0.00000  Uiso   1.00
Zn4    Zn    0.28679   0.80504   0.57890   0.00000  Uiso   1.00
O1     O     0.37399   0.72553   0.50808   0.00000  Uiso   1.00
O2     O     0.42071   0.52769   0.57492   0.00000  Uiso   1.00
O3     O     0.31818   0.65876   0.31027   0.00000  Uiso   1.00
O4     O     0.61624   0.77751   0.44971   0.00000  Uiso   1.00
O5     O     0.29861   0.52138   0.46445   0.00000  Uiso   1.00
O6     O     0.60141   0.67341   0.56653   0.00000  Uiso   1.00
O7     O     0.45510   0.76917   0.30392   0.00000  Uiso   1.00
O8     O     0.45631   0.92332   0.44127   0.00000  Uiso   1.00
O9     O     0.30074   0.79232   0.70587   0.00000  Uiso   1.00
O10    O     0.32031   0.92971   0.55170   0.00000  Uiso   1.00
O11    O     0.42192   0.68184   0.71227   0.00000  Uiso   1.00
O12    O     0.13869   0.66719   0.45601   0.00000  Uiso   1.00
O13    O     0.13960   0.78399   0.56008   0.00000  Uiso   1.00
C1     C     0.39063   0.95914   0.49460   0.00000  Uiso   1.00
C2     C     0.39773   0.05909   0.48885   0.00000  Uiso   1.00
C3     C     0.10102   0.72558   0.50806   0.00000  Uiso   1.00
C4     C     0.98424   0.72552   0.50809   0.00000  Uiso   1.00
C5     C     0.35922   0.73901   0.74261   0.00000  Uiso   1.00
C6     C     0.35292   0.74476   0.84255   0.00000  Uiso   1.00
C7     C     0.92893   0.66464   0.45396   0.00000  Uiso   1.00
C8     C     0.81920   0.66459   0.45399   0.00000  Uiso   1.00
C9     C     0.82010   0.78630   0.56227   0.00000  Uiso   1.00
C10    C     0.92983   0.78635   0.56225   0.00000  Uiso   1.00
C11    C     0.98334   0.60382   0.39981   0.00000  Uiso   1.00
C12    C     0.92802   0.54294   0.34568   0.00000  Uiso   1.00
C13    C     0.81829   0.54289   0.34571   0.00000  Uiso   1.00
C14    C     0.76388   0.60371   0.39987   0.00000  Uiso   1.00
C15    C     0.64801   0.72545   0.50813   0.00000  Uiso   1.00
C16    C     0.76478   0.72542   0.50814   0.00000  Uiso   1.00
C17    C     0.35727   0.49100   0.52162   0.00000  Uiso   1.00
C18    C     0.35015   0.39105   0.52739   0.00000  Uiso   1.00
C19    C     0.26925   0.25348   0.59289   0.00000  Uiso   1.00
C20    C     0.27591   0.34739   0.58749   0.00000  Uiso   1.00
C21    C     0.41773   0.34081   0.47267   0.00000  Uiso   1.00
C22    C     0.41106   0.24690   0.47807   0.00000  Uiso   1.00
C23    C     0.33682   0.20324   0.53818   0.00000  Uiso   1.00
C24    C     0.33015   0.10933   0.54357   0.00000  Uiso   1.00
C25    C     0.47197   0.10275   0.42875   0.00000  Uiso   1.00
C26    C     0.47863   0.19666   0.42336   0.00000  Uiso   1.00
C27    C     0.38877   0.71204   0.27447   0.00000  Uiso   1.00
C28    C     0.39534   0.70612   0.17454   0.00000  Uiso   1.00
C29    C     0.46730   0.64051   0.03701   0.00000  Uiso   1.00
C30    C     0.46139   0.64591   0.13091   0.00000  Uiso   1.00
C31    C     0.33520   0.76095   0.12426   0.00000  Uiso   1.00
C32    C     0.34111   0.75555   0.03036   0.00000  Uiso   1.00
C33    C     0.40716   0.69533   0.98674   0.00000  Uiso   1.00
C34    C     0.41307   0.68993   0.89283   0.00000  Uiso   1.00
C35    C     0.28688   0.80497   0.88618   0.00000  Uiso   1.00
C36    C     0.28097   0.81037   0.98008   0.00000  Uiso   1.00
H1     H     0.97233   0.49341   0.30159   0.00000  Uiso   1.00
N1     N     0.25008   0.06225   0.60840   0.00000  Uiso   1.00
H2     H     0.28731   0.02567   0.65236   0.00000  Uiso   1.00
H3     H     0.20101   0.02124   0.57396   0.00000  Uiso   1.00
H4     H     0.51037   0.60127   0.17184   0.00000  Uiso   1.00
H5     H     0.07268   0.60386   0.39977   0.00000  Uiso   1.00
N2     N     0.76142   0.85191   0.62067   0.00000  Uiso   1.00
H6     H     0.77552   0.84170   0.68573   0.00000  Uiso   1.00
H7     H     0.68354   0.84261   0.61240   0.00000  Uiso   1.00
H8     H     0.77326   0.49331   0.30164   0.00000  Uiso   1.00
N3     N     0.64552   0.60365   0.39991   0.00000  Uiso   1.00
H9     H     0.61874   0.55585   0.35741   0.00000  Uiso   1.00
H10    H     0.62454   0.66438   0.37981   0.00000  Uiso   1.00
H11    H     0.97487   0.83592   0.60632   0.00000  Uiso   1.00
H12    H     0.20879   0.21793   0.64183   0.00000  Uiso   1.00
H13    H     0.46685   0.64089   0.85731   0.00000  Uiso   1.00
H14    H     0.22089   0.38829   0.63205   0.00000  Uiso   1.00
H15    H     0.47818   0.37637   0.42374   0.00000  Uiso   1.00
H16    H     0.53908   0.23222   0.37442   0.00000  Uiso   1.00
N4     N     0.53853   0.57555   0.98995   0.00000  Uiso   1.00
H17    H     0.57573   0.54164   0.03605   0.00000  Uiso   1.00
H18    H     0.59221   0.60990   0.94888   0.00000  Uiso   1.00
N5     N     0.54485   0.04857   0.36973   0.00000  Uiso   1.00
H19    H     0.52936   0.98245   0.38227   0.00000  Uiso   1.00
H20    H     0.62014   0.06578   0.38289   0.00000  Uiso   1.00
H21    H     0.28143   0.80998   0.15980   0.00000  Uiso   1.00
H22    H     0.22720   0.85940   0.01562   0.00000  Uiso   1.00
N6     N     0.22200   0.86410   0.83196   0.00000  Uiso   1.00
H23    H     0.23576   0.85154   0.76585   0.00000  Uiso   1.00
H24    H     0.24189   0.92926   0.84467   0.00000  Uiso   1.00
