# Generated by REPEAT Assigner based on pymatgen
data_DB5-hypotheticalMOF_6023_3_0_0_10_21_0
_audit_creation_date              2022-05-24
_audit_creation_method            REPEAT_Assigner
_cell_length_a                    18.215407
_cell_length_b                    12.827892
_cell_length_c                    18.215399
_cell_angle_alpha                 89.976162
_cell_angle_beta                  89.980167
_cell_angle_gamma                 90.015840
_cell_volume                      4256.305407
_symmetry_space_group_name_H-M    P1
_symmetry_Int_Tables_number       1
loop_
    _symmetry_equiv_pos_site_id
    _symmetry_equiv_pos_as_xyz
    1  x,y,z
loop_
    _atom_site_type_symbol
    _atom_site_label
    _atom_site_fract_x
    _atom_site_fract_y
    _atom_site_fract_z
    _atom_type_partial_charge
    Zn  Zn1  0.125121  0.583969  0.583863  1.293621
    Zn  Zn2  0.125049  0.409210  0.706921  1.290795
    Zn  Zn3  0.002053  0.583935  0.706916  1.286132
    Zn  Zn4  0.002039  0.409268  0.583896  1.289117
    O   O1   0.063566  0.496595  0.645399  -1.611621
    O   O2   0.228095  0.560777  0.600175  -0.568379
    O   O3   0.108710  0.432349  0.809904  -0.569617
    O   O4   0.018414  0.730175  0.690577  -0.598175
    O   O5   0.228043  0.432382  0.690585  -0.575057
    O   O6   0.108831  0.730200  0.600171  -0.599697
    O   O7   0.018345  0.560718  0.809901  -0.562178
    O   O8   0.899067  0.560775  0.690608  -0.558744
    O   O9   0.018390  0.432481  0.480907  -0.568184
    O   O10  0.899057  0.432448  0.600226  -0.563440
    O   O11  0.108818  0.560833  0.480883  -0.564890
    O   O12  0.108696  0.262981  0.690617  -0.580839
    O   O13  0.018321  0.263024  0.600231  -0.580822
    C   C1   0.872359  0.496613  0.645420  0.537491
    C   C2   0.790560  0.496595  0.645411  0.039549
    C   C3   0.602380  0.429671  0.598408  -0.221804
    C   C4   0.525522  0.429667  0.598399  -0.206281
    C   C5   0.525503  0.563501  0.692373  -0.209128
    C   C6   0.602360  0.563509  0.692378  -0.219502
    C   C7   0.640797  0.496587  0.645397  0.363898
    C   C8   0.487081  0.496576  0.645383  0.334967
    C   C9   0.403747  0.496573  0.645373  -0.276141
    C   C10  0.724136  0.496592  0.645405  -0.297659
    C   C11  0.063520  0.225085  0.645412  0.532223
    C   C12  0.063567  0.108932  0.645393  -0.136825
    C   C13  0.108341  0.057161  0.690069  -0.098811
    C   C14  0.108391  0.937111  0.690050  -0.174814
    C   C15  0.255518  0.496576  0.645377  0.559780
    C   C16  0.337317  0.496568  0.645368  0.036553
    C   C17  0.063610  0.496667  0.453446  0.543081
    C   C18  0.063629  0.496698  0.371647  0.035294
    C   C19  0.063632  0.769165  0.645370  0.590308
    C   C20  0.063660  0.885318  0.645357  -0.057327
    C   C21  0.110732  0.563593  0.183439  -0.215181
    C   C22  0.110741  0.563624  0.106580  -0.213430
    C   C23  0.016579  0.429964  0.106617  -0.210741
    C   C24  0.016567  0.429940  0.183474  -0.217767
    C   C25  0.063648  0.496753  0.221883  0.357450
    C   C26  0.063668  0.496808  0.068167  0.342404
    C   C27  0.063678  0.496840  0.984833  -0.283089
    C   C28  0.063638  0.496722  0.305222  -0.291327
    C   C29  0.063563  0.496599  0.836605  0.553920
    C   C30  0.063687  0.496862  0.918403  0.040726
    H   H1   0.633639  0.618007  0.730642  0.157401
    H   H2   0.149080  0.618054  0.075283  0.156986
    H   H3   0.978249  0.375565  0.075334  0.157172
    H   H4   0.025275  0.064379  0.607127  0.126438
    H   H5   0.494246  0.375178  0.560136  0.156474
    H   H6   0.978220  0.375511  0.214776  0.158350
    H   H7   0.149066  0.618000  0.214710  0.156890
    H   H8   0.633674  0.375182  0.560151  0.158973
    H   H9   0.146721  0.892588  0.728301  0.144839
    H   H10  0.494198  0.617984  0.730625  0.156476
    H   H11  0.146639  0.101712  0.728329  0.158878
    H   H12  0.025323  0.929833  0.607109  0.115284
