# Generated by REPEAT Assigner based on pymatgen
data_DB5-hypotheticalMOF_24681_1_0_1_5_24_0
_audit_creation_date              2022-05-24
_audit_creation_method            REPEAT_Assigner
_cell_length_a                    16.992694
_cell_length_b                    10.654541
_cell_length_c                    16.053802
_cell_angle_alpha                 92.590712
_cell_angle_beta                  87.249047
_cell_angle_gamma                 87.576076
_cell_volume                      2897.333029
_symmetry_space_group_name_H-M    P1
_symmetry_Int_Tables_number       1
loop_
    _symmetry_equiv_pos_site_id
    _symmetry_equiv_pos_as_xyz
    1  x,y,z
loop_
    _atom_site_type_symbol
    _atom_site_label
    _atom_site_fract_x
    _atom_site_fract_y
    _atom_site_fract_z
    _atom_type_partial_charge
    O   O1   0.045115  0.261481  0.930676  -0.703806
    O   O2   0.816815  0.258557  0.930652  -0.696225
    O   O3   0.936214  0.077733  0.930670  -0.706854
    O   O4   0.925715  0.442304  0.930658  -0.698453
    O   O5   0.929642  0.087643  0.069527  -0.697437
    O   O6   0.810242  0.268466  0.069510  -0.713012
    O   O7   0.038542  0.271391  0.069534  -0.695737
    Zn  Zn1  0.923349  0.271501  0.091569  0.956706
    Zn  Zn2  0.932008  0.258446  0.908617  0.932946
    O   O8   0.919143  0.452214  0.069516  -0.715850
    C   C1   0.784296  0.259751  0.000077  0.914550
    C   C2   0.697191  0.248531  0.000068  -0.085293
    C   C3   0.647539  0.356781  0.000065  -0.222178
    C   C4   0.565694  0.346233  0.000077  -0.099811
    C   C5   0.533504  0.227433  0.000086  0.430789
    C   C6   0.583162  0.119174  0.000091  -0.348701
    C   C7   0.665005  0.129724  0.000085  0.033204
    C   C8   0.289668  0.183707  0.000110  -0.099755
    C   C9   0.207819  0.173165  0.000113  -0.219223
    C   C10  0.190356  0.400226  0.000101  0.035121
    C   C11  0.272201  0.410765  0.000090  -0.348059
    C   C12  0.321852  0.302506  0.000099  0.429779
    N   N1   0.449846  0.216647  0.000095  -0.235316
    N   N2   0.405508  0.313293  0.000096  -0.234917
    C   C13  0.932158  0.035823  0.000098  1.070689
    C   C14  0.929852  0.896181  0.000096  -0.488152
    C   C15  0.072627  0.880550  0.000122  -0.198421
    C   C16  0.142928  0.807132  0.000137  -0.200510
    C   C17  0.140757  0.675926  0.000134  -0.080438
    C   C18  0.068278  0.618136  0.000114  -0.199583
    C   C19  0.997977  0.691554  0.000100  0.189485
    C   C20  0.000155  0.822762  0.000105  0.257238
    C   C21  0.855204  0.707184  0.000068  0.249982
    C   C22  0.857373  0.838390  0.000076  0.196279
    C   C23  0.782725  0.649394  0.000048  -0.196764
    C   C24  0.712422  0.722812  0.000039  -0.200637
    C   C25  0.714596  0.854026  0.000043  -0.080413
    C   C26  0.787072  0.911808  0.000062  -0.200859
    C   C27  0.071061  0.270196  0.000106  0.906508
    C   C28  0.158166  0.281416  0.000110  -0.087786
    C   C29  0.923199  0.494124  0.000086  1.079642
    C   C30  0.925505  0.633766  0.000082  -0.482089
    N   N3   0.917445  0.280412  0.216428  0.005657
    N   N4   0.937918  0.249526  0.783758  0.014743
    C   C31  0.968268  0.203502  0.260130  -0.152335
    C   C32  0.964146  0.209748  0.347536  -0.051641
    C   C33  0.909203  0.292910  0.391239  0.419333
    C   C34  0.858374  0.369822  0.347531  -0.295426
    C   C35  0.862493  0.363569  0.260126  0.002726
    C   C36  0.891209  0.320186  0.652646  -0.054476
    C   C37  0.887095  0.326436  0.740056  -0.153055
    C   C38  0.992866  0.166359  0.740055  -0.000813
    C   C39  0.996984  0.160119  0.652649  -0.296679
    C   C40  0.946152  0.237026  0.608949  0.422531
    N   N5   0.904989  0.299298  0.480582  -0.220379
    N   N6   0.950363  0.230631  0.519607  -0.222967
    H   H1   0.298405  0.507504  0.000073  0.107054
    H   H2   0.041723  0.092402  0.617067  0.144452
    H   H3   0.330084  0.095555  0.000118  0.058745
    H   H4   0.525270  0.434383  0.000074  0.058828
    H   H5   0.074401  0.987385  0.000136  0.114618
    H   H6   0.653415  0.675748  0.000018  0.141243
    H   H7   0.034250  0.103743  0.775643  0.167186
    H   H8   0.201939  0.854200  0.000160  0.141490
    H   H9   0.849821  0.382810  0.617072  0.057971
    H   H10  0.673741  0.453522  0.000058  0.140640
    H   H11  0.181613  0.076419  0.000119  0.139409
    H   H12  0.657348  0.913796  0.000027  0.169891
    H   H13  0.842351  0.394161  0.775635  0.192081
    H   H14  0.556946  0.022444  0.000110  0.107149
    H   H15  0.705432  0.041574  0.000087  -0.019314
    H   H16  0.066517  0.511300  0.000101  0.146937
    H   H17  0.198003  0.616148  0.000139  0.169893
    H   H18  0.780962  0.542558  0.000040  0.114001
    H   H19  0.149922  0.488363  0.000095  -0.021325
    H   H20  0.788849  0.018643  0.000070  0.146307
    H   H21  0.013012  0.135788  0.224552  0.190976
    H   H22  0.005530  0.147121  0.383117  0.057711
    H   H23  0.813634  0.437530  0.383119  0.143699
    H   H24  0.821106  0.426196  0.224545  0.166504
