# Generated by REPEAT Assigner based on pymatgen
data_DB5-hypotheticalMOF_1021_1_1_0_2_9_14
_audit_creation_date              2022-05-24
_audit_creation_method            REPEAT_Assigner
_cell_length_a                    12.759401
_cell_length_b                    11.169416
_cell_length_c                    11.169406
_cell_angle_alpha                 89.953196
_cell_angle_beta                  89.967503
_cell_angle_gamma                 90.011865
_cell_volume                      1591.807719
_symmetry_space_group_name_H-M    P1
_symmetry_Int_Tables_number       1
loop_
    _symmetry_equiv_pos_site_id
    _symmetry_equiv_pos_as_xyz
    1  x,y,z
loop_
    _atom_site_type_symbol
    _atom_site_label
    _atom_site_fract_x
    _atom_site_fract_y
    _atom_site_fract_z
    _atom_type_partial_charge
    Zn  Zn1  0.606418  0.522528  0.321395  1.321044
    Zn  Zn2  0.106418  0.022528  0.821395  1.320888
    Zn  Zn3  0.606287  0.321731  0.522073  1.316334
    Zn  Zn4  0.106287  0.821731  0.022073  1.317061
    Zn  Zn5  0.430681  0.522396  0.522066  1.229873
    Zn  Zn6  0.930681  0.022396  0.022066  1.229738
    Zn  Zn7  0.430722  0.321883  0.321434  1.222692
    Zn  Zn8  0.930722  0.821883  0.821434  1.222491
    O   O1   0.518527  0.422134  0.421742  -1.548432
    O   O2   0.018527  0.922134  0.921742  -1.548448
    O   O3   0.753422  0.495883  0.348002  -0.555801
    O   O4   0.253422  0.995883  0.848002  -0.556096
    O   O5   0.582921  0.348232  0.690022  -0.525285
    O   O6   0.082921  0.848232  0.190022  -0.525500
    O   O7   0.454031  0.690364  0.495428  -0.545797
    O   O8   0.954031  0.190364  0.995428  -0.545798
    O   O9   0.753325  0.348359  0.495440  -0.556140
    O   O10  0.253325  0.848359  0.995440  -0.556527
    O   O11  0.583144  0.690460  0.347996  -0.598379
    O   O12  0.083144  0.190460  0.847996  -0.598313
    O   O13  0.453904  0.495660  0.690017  -0.451819
    O   O14  0.953904  0.995660  0.190017  -0.451774
    O   O15  0.283666  0.495806  0.495465  -0.471563
    O   O16  0.783666  0.995806  0.995465  -0.471377
    O   O17  0.454100  0.348617  0.153479  -0.451546
    O   O18  0.954100  0.848617  0.653479  -0.451397
    O   O19  0.283696  0.348489  0.348061  -0.473324
    O   O20  0.783696  0.848489  0.848061  -0.473031
    O   O21  0.583183  0.496030  0.153450  -0.529353
    O   O22  0.083183  0.996030  0.653450  -0.529308
    O   O23  0.582960  0.153802  0.495477  -0.590048
    O   O24  0.082960  0.653802  0.995477  -0.590426
    O   O25  0.453973  0.153913  0.348068  -0.534975
    O   O26  0.953973  0.653913  0.848068  -0.535116
    C   C1   0.245560  0.422149  0.421766  0.257190
    C   C2   0.745560  0.922149  0.921766  0.256948
    C   C3   0.128783  0.422126  0.421748  0.321896
    C   C4   0.628783  0.922126  0.921748  0.321918
    C   C5   0.073964  0.345302  0.345115  -0.212715
    C   C6   0.573964  0.845302  0.845115  -0.212632
    C   C7   0.964240  0.345297  0.345092  -0.197796
    C   C8   0.464240  0.845297  0.845092  -0.197741
    C   C9   0.964164  0.498945  0.498343  -0.199474
    C   C10  0.464164  0.998945  0.998343  -0.199458
    C   C11  0.073886  0.498955  0.498360  -0.211248
    C   C12  0.573886  0.998955  0.998360  -0.211114
    C   C13  0.518486  0.110310  0.421751  0.566182
    C   C14  0.018486  0.610310  0.921751  0.566265
    C   C15  0.518564  0.976910  0.421715  -0.079137
    C   C16  0.018564  0.476910  0.921715  -0.078808
    C   C17  0.792560  0.422119  0.421718  0.265343
    C   C18  0.292560  0.922119  0.921718  0.266871
    C   C19  0.909337  0.422112  0.421707  0.237563
    C   C20  0.409337  0.922112  0.921707  0.236986
    C   C21  0.518661  0.422355  0.108699  0.409686
    C   C22  0.018661  0.922355  0.608699  0.409740
    C   C23  0.518718  0.422449  0.975299  0.021541
    C   C24  0.018718  0.922449  0.475299  0.021131
    C   C25  0.518598  0.735177  0.421707  0.572127
    C   C26  0.018598  0.235177  0.921707  0.572233
    C   C27  0.518628  0.868577  0.421692  -0.076466
    C   C28  0.018628  0.368577  0.921692  -0.076778
    C   C29  0.518454  0.422002  0.733567  0.403886
    C   C30  0.018454  0.922002  0.233567  0.403625
    C   C31  0.518601  0.422246  0.866967  0.033608
    C   C32  0.018601  0.922246  0.366967  0.034127
    H   H1   0.919612  0.282741  0.282688  0.135246
    H   H2   0.419612  0.782741  0.782688  0.135407
    C   C33  0.134353  0.260803  0.260836  0.353459
    C   C34  0.634353  0.760803  0.760836  0.353238
    C   C35  0.119242  0.124372  0.270849  -0.289189
    C   C36  0.619242  0.624372  0.770849  -0.289235
    C   C37  0.179628  0.039874  0.186564  -0.174154
    C   C38  0.679628  0.539874  0.686564  -0.174094
    C   C39  0.255125  0.091806  0.092265  -0.294822
    C   C40  0.755125  0.591806  0.592265  -0.294679
    C   C41  0.270239  0.228244  0.082247  0.126749
    C   C42  0.770239  0.728244  0.582247  0.126708
    C   C43  0.209854  0.312742  0.166532  -0.276155
    C   C44  0.709854  0.812742  0.666532  -0.276091
    H   H3   0.063352  0.085922  0.340659  0.147308
    H   H4   0.563352  0.585922  0.840659  0.147334
    H   H5   0.168439  0.938873  0.193980  0.179555
    H   H6   0.668439  0.438873  0.693980  0.179539
    H   H7   0.299826  0.029255  0.029872  0.246532
    H   H8   0.799826  0.529255  0.529872  0.246804
    H   H9   0.326130  0.266694  0.012438  0.008877
    H   H10  0.826130  0.766694  0.512438  0.008861
    H   H11  0.221043  0.413743  0.159116  0.153657
    H   H12  0.721043  0.913743  0.659116  0.153577
    C   C45  0.134192  0.583464  0.582667  0.350836
    C   C46  0.634192  0.083464  0.082667  0.350473
    C   C47  0.119129  0.719893  0.572648  -0.288530
    C   C48  0.619129  0.219893  0.072648  -0.288415
    C   C49  0.179435  0.804400  0.656949  -0.175049
    C   C50  0.679435  0.304400  0.156949  -0.175278
    C   C51  0.254805  0.752478  0.751270  -0.290514
    C   C52  0.754805  0.252478  0.251270  -0.290003
    C   C53  0.269871  0.616043  0.761293  0.125436
    C   C54  0.769871  0.116043  0.261293  0.125010
    C   C55  0.209565  0.531535  0.676992  -0.274906
    C   C56  0.709565  0.031535  0.176992  -0.274565
    H   H13  0.063333  0.758335  0.502823  0.146634
    H   H14  0.563333  0.258335  0.002823  0.146622
    H   H15  0.168282  0.905399  0.649529  0.181112
    H   H16  0.668282  0.405399  0.149529  0.181095
    H   H17  0.299447  0.815036  0.813675  0.241138
    H   H18  0.799447  0.315036  0.313675  0.241442
    H   H19  0.325667  0.577601  0.831119  0.008919
    H   H20  0.825667  0.077601  0.331119  0.008977
    H   H21  0.220719  0.430536  0.684412  0.153283
    H   H22  0.720719  0.930536  0.184412  0.153224
    H   H23  0.919453  0.561494  0.560720  0.134229
    H   H24  0.419453  0.061494  0.060720  0.134354
