data_DB5-hypotheticalMOF_32382_1_1_2_25_25_5_repeat
_audit_creation_date              2024-02-20
_audit_creation_method            'Materials Studio'
_symmetry_space_group_name_H-M    'P1'
_symmetry_Int_Tables_number       1
_symmetry_cell_setting            triclinic
loop_
_symmetry_equiv_pos_as_xyz
  x,y,z
_cell_length_a                    17.6991
_cell_length_b                    16.1763
_cell_length_c                    17.6991
_cell_angle_alpha                 89.9923
_cell_angle_beta                  96.7127
_cell_angle_gamma                 90.0091
loop_
_atom_site_label
_atom_site_type_symbol
_atom_site_fract_x
_atom_site_fract_y
_atom_site_fract_z
_atom_site_U_iso_or_equiv
_atom_site_adp_type
_atom_site_occupancy
O1     O     0.99593   0.93122   0.09579   0.00000  Uiso   1.00
O2     O     0.49593   0.43122   0.59579   0.00000  Uiso   1.00
O3     O     0.21631   0.93122   0.10822   0.00000  Uiso   1.00
O4     O     0.71631   0.43122   0.60822   0.00000  Uiso   1.00
O5     O     0.09989   0.93123   0.99182   0.00000  Uiso   1.00
O6     O     0.59989   0.43123   0.49182   0.00000  Uiso   1.00
O7     O     0.11235   0.93122   0.21219   0.00000  Uiso   1.00
O8     O     0.61235   0.43122   0.71219   0.00000  Uiso   1.00
O9     O     0.09991   0.06872   0.99181   0.00000  Uiso   1.00
O10    O     0.59991   0.56872   0.49181   0.00000  Uiso   1.00
O11    O     0.21632   0.06872   0.10822   0.00000  Uiso   1.00
O12    O     0.71632   0.56872   0.60822   0.00000  Uiso   1.00
O13    O     0.99595   0.06871   0.09578   0.00000  Uiso   1.00
O14    O     0.49595   0.56871   0.59578   0.00000  Uiso   1.00
Cu1    Cu    0.10614   0.08127   0.10200   0.00000  Uiso   1.00
Cu2    Cu    0.60614   0.58127   0.60200   0.00000  Uiso   1.00
Cu3    Cu    0.10612   0.91867   0.10201   0.00000  Uiso   1.00
Cu4    Cu    0.60612   0.41867   0.60201   0.00000  Uiso   1.00
O15    O     0.11236   0.06871   0.21219   0.00000  Uiso   1.00
O16    O     0.61236   0.56871   0.71219   0.00000  Uiso   1.00
C1     C     0.24451   0.99997   0.10777   0.00000  Uiso   1.00
C2     C     0.74451   0.49997   0.60777   0.00000  Uiso   1.00
C3     C     0.32853   0.99997   0.10643   0.00000  Uiso   1.00
C4     C     0.82853   0.49997   0.60643   0.00000  Uiso   1.00
N1     N     0.10614   0.19563   0.10199   0.00000  Uiso   1.00
N2     N     0.60614   0.69563   0.60199   0.00000  Uiso   1.00
C5     C     0.85340   0.99997   0.16717   0.00000  Uiso   1.00
C6     C     0.35340   0.49997   0.66717   0.00000  Uiso   1.00
C7     C     0.77446   0.99997   0.16843   0.00000  Uiso   1.00
C8     C     0.27446   0.49997   0.66843   0.00000  Uiso   1.00
C9     C     0.72584   0.99997   0.10009   0.00000  Uiso   1.00
C10    C     0.22584   0.49997   0.60009   0.00000  Uiso   1.00
C11    C     0.75617   0.99997   0.03050   0.00000  Uiso   1.00
C12    C     0.25617   0.49997   0.53050   0.00000  Uiso   1.00
C13    C     0.83511   0.99997   0.02924   0.00000  Uiso   1.00
C14    C     0.33511   0.49997   0.52924   0.00000  Uiso   1.00
C15    C     0.43780   0.99998   0.03557   0.00000  Uiso   1.00
C16    C     0.93780   0.49998   0.53557   0.00000  Uiso   1.00
C17    C     0.35886   0.99998   0.03683   0.00000  Uiso   1.00
C18    C     0.85886   0.49998   0.53683   0.00000  Uiso   1.00
C19    C     0.37715   0.99998   0.17476   0.00000  Uiso   1.00
C20    C     0.87715   0.49998   0.67476   0.00000  Uiso   1.00
C21    C     0.45609   0.99997   0.17350   0.00000  Uiso   1.00
C22    C     0.95609   0.49997   0.67350   0.00000  Uiso   1.00
C23    C     0.48641   0.99997   0.10390   0.00000  Uiso   1.00
C24    C     0.98641   0.49997   0.60390   0.00000  Uiso   1.00
C25    C     0.57201   0.99997   0.10254   0.00000  Uiso   1.00
C26    C     0.07201   0.49997   0.60254   0.00000  Uiso   1.00
C27    C     0.64024   0.99997   0.10146   0.00000  Uiso   1.00
C28    C     0.14024   0.49997   0.60146   0.00000  Uiso   1.00
C29    C     0.10035   0.99998   0.96362   0.00000  Uiso   1.00
C30    C     0.60035   0.49998   0.46362   0.00000  Uiso   1.00
C31    C     0.10169   0.99998   0.87960   0.00000  Uiso   1.00
C32    C     0.60169   0.49998   0.37960   0.00000  Uiso   1.00
C33    C     0.96774   0.99997   0.09623   0.00000  Uiso   1.00
C34    C     0.46774   0.49997   0.59623   0.00000  Uiso   1.00
C35    C     0.88373   0.99997   0.09758   0.00000  Uiso   1.00
C36    C     0.38373   0.49997   0.59758   0.00000  Uiso   1.00
N3     N     0.10610   0.80430   0.10201   0.00000  Uiso   1.00
N4     N     0.60610   0.30430   0.60201   0.00000  Uiso   1.00
C37    C     0.05458   0.23890   0.05047   0.00000  Uiso   1.00
C38    C     0.55458   0.73890   0.55047   0.00000  Uiso   1.00
C39    C     0.05458   0.32545   0.05047   0.00000  Uiso   1.00
C40    C     0.55458   0.82545   0.55047   0.00000  Uiso   1.00
C41    C     0.10613   0.36873   0.10199   0.00000  Uiso   1.00
C42    C     0.60613   0.86873   0.60199   0.00000  Uiso   1.00
C43    C     0.15770   0.32546   0.15352   0.00000  Uiso   1.00
C44    C     0.65770   0.82546   0.65352   0.00000  Uiso   1.00
C45    C     0.15771   0.23891   0.15352   0.00000  Uiso   1.00
C46    C     0.65771   0.73891   0.65352   0.00000  Uiso   1.00
C47    C     0.15768   0.67448   0.15353   0.00000  Uiso   1.00
C48    C     0.65768   0.17448   0.65353   0.00000  Uiso   1.00
C49    C     0.15766   0.76104   0.15354   0.00000  Uiso   1.00
C50    C     0.65766   0.26103   0.65354   0.00000  Uiso   1.00
C51    C     0.05454   0.76102   0.05048   0.00000  Uiso   1.00
C52    C     0.55454   0.26102   0.55048   0.00000  Uiso   1.00
C53    C     0.05455   0.67448   0.05048   0.00000  Uiso   1.00
C54    C     0.55455   0.17448   0.55048   0.00000  Uiso   1.00
C55    C     0.10612   0.63121   0.10200   0.00000  Uiso   1.00
C56    C     0.60612   0.13121   0.60200   0.00000  Uiso   1.00
C57    C     0.10613   0.53737   0.10200   0.00000  Uiso   1.00
C58    C     0.60613   0.03737   0.60200   0.00000  Uiso   1.00
C59    C     0.10613   0.46257   0.10200   0.00000  Uiso   1.00
C60    C     0.60613   0.96257   0.60200   0.00000  Uiso   1.00
C61    C     0.03335   0.99998   0.83098   0.00000  Uiso   1.00
C62    C     0.53335   0.49998   0.33098   0.00000  Uiso   1.00
C63    C     0.03462   0.99997   0.75204   0.00000  Uiso   1.00
C64    C     0.53462   0.49997   0.25204   0.00000  Uiso   1.00
C65    C     0.10421   0.99997   0.72171   0.00000  Uiso   1.00
C66    C     0.60421   0.49997   0.22171   0.00000  Uiso   1.00
C67    C     0.17255   0.99996   0.77033   0.00000  Uiso   1.00
C68    C     0.67255   0.49996   0.27033   0.00000  Uiso   1.00
C69    C     0.17129   0.99997   0.84928   0.00000  Uiso   1.00
C70    C     0.67129   0.49997   0.34928   0.00000  Uiso   1.00
C71    C     0.17764   0.99996   0.45197   0.00000  Uiso   1.00
C72    C     0.67764   0.49996   0.95197   0.00000  Uiso   1.00
C73    C     0.17890   0.99996   0.37302   0.00000  Uiso   1.00
C74    C     0.67890   0.49996   0.87302   0.00000  Uiso   1.00
C75    C     0.04097   0.99996   0.35473   0.00000  Uiso   1.00
C76    C     0.54097   0.49996   0.85473   0.00000  Uiso   1.00
C77    C     0.03971   0.99996   0.43368   0.00000  Uiso   1.00
C78    C     0.53971   0.49996   0.93368   0.00000  Uiso   1.00
C79    C     0.10805   0.99995   0.48229   0.00000  Uiso   1.00
C80    C     0.60805   0.49996   0.98229   0.00000  Uiso   1.00
C81    C     0.10668   0.99996   0.56789   0.00000  Uiso   1.00
C82    C     0.60668   0.49996   0.06789   0.00000  Uiso   1.00
C83    C     0.10558   0.99997   0.63612   0.00000  Uiso   1.00
C84    C     0.60558   0.49997   0.13611   0.00000  Uiso   1.00
C85    C     0.11191   0.99996   0.24039   0.00000  Uiso   1.00
C86    C     0.61191   0.49996   0.74039   0.00000  Uiso   1.00
C87    C     0.11057   0.99995   0.32441   0.00000  Uiso   1.00
C88    C     0.61057   0.49995   0.82441   0.00000  Uiso   1.00
H1     H     0.89298   0.99997   0.22282   0.00000  Uiso   1.00
H2     H     0.39298   0.49997   0.72282   0.00000  Uiso   1.00
H3     H     0.74977   0.99996   0.22510   0.00000  Uiso   1.00
H4     H     0.24977   0.49996   0.72510   0.00000  Uiso   1.00
N5     N     0.70374   0.99998   0.95679   0.00000  Uiso   1.00
N6     N     0.20374   0.49998   0.45679   0.00000  Uiso   1.00
H5     H     0.71347   0.94901   0.92642   0.00000  Uiso   1.00
H6     H     0.21347   0.44901   0.42642   0.00000  Uiso   1.00
H7     H     0.64915   0.00002   0.96821   0.00000  Uiso   1.00
H8     H     0.14915   0.50002   0.46821   0.00000  Uiso   1.00
N7     N     0.24762   0.99996   0.73763   0.00000  Uiso   1.00
N8     N     0.74762   0.49996   0.23763   0.00000  Uiso   1.00
H9     H     0.23805   0.99996   0.68025   0.00000  Uiso   1.00
H10    H     0.73805   0.49996   0.18024   0.00000  Uiso   1.00
H11    H     0.27752   0.05093   0.75542   0.00000  Uiso   1.00
H12    H     0.77752   0.55093   0.25542   0.00000  Uiso   1.00
H13    H     0.46248   0.99997   0.97890   0.00000  Uiso   1.00
H14    H     0.96248   0.49997   0.47890   0.00000  Uiso   1.00
H15    H     0.19970   0.20368   0.19547   0.00000  Uiso   1.00
H16    H     0.69970   0.70368   0.69547   0.00000  Uiso   1.00
N9     N     0.24499   0.99996   0.90172   0.00000  Uiso   1.00
N10    N     0.74499   0.49996   0.40172   0.00000  Uiso   1.00
H17    H     0.28927   0.99996   0.87053   0.00000  Uiso   1.00
H18    H     0.78927   0.49996   0.37053   0.00000  Uiso   1.00
H19    H     0.24748   0.05093   0.93487   0.00000  Uiso   1.00
H20    H     0.74748   0.55093   0.43486   0.00000  Uiso   1.00
H21    H     0.31927   0.99998   0.98118   0.00000  Uiso   1.00
H22    H     0.81927   0.49998   0.48118   0.00000  Uiso   1.00
H23    H     0.49567   0.99997   0.22915   0.00000  Uiso   1.00
H24    H     0.99567   0.49997   0.72915   0.00000  Uiso   1.00
N11    N     0.99898   0.19221   0.99489   0.00000  Uiso   1.00
N12    N     0.49898   0.69221   0.49489   0.00000  Uiso   1.00
H25    H     0.94528   0.20725   0.00354   0.00000  Uiso   1.00
H26    H     0.44528   0.70725   0.50354   0.00000  Uiso   1.00
H27    H     0.00766   0.20730   0.94121   0.00000  Uiso   1.00
H28    H     0.50766   0.70730   0.44121   0.00000  Uiso   1.00
H29    H     0.85980   0.99997   0.97257   0.00000  Uiso   1.00
H30    H     0.35980   0.49997   0.47257   0.00000  Uiso   1.00
H31    H     0.23329   0.99995   0.49154   0.00000  Uiso   1.00
H32    H     0.73329   0.49995   0.99154   0.00000  Uiso   1.00
N13    N     0.21331   0.37213   0.20910   0.00000  Uiso   1.00
N14    N     0.71331   0.87213   0.70910   0.00000  Uiso   1.00
H33    H     0.26701   0.35708   0.20045   0.00000  Uiso   1.00
H34    H     0.76701   0.85708   0.70045   0.00000  Uiso   1.00
H35    H     0.20542   0.43350   0.20126   0.00000  Uiso   1.00
H36    H     0.70542   0.93350   0.70126   0.00000  Uiso   1.00
H37    H     0.35245   0.99998   0.23143   0.00000  Uiso   1.00
H38    H     0.85245   0.49998   0.73143   0.00000  Uiso   1.00
N15    N     0.96464   0.99997   0.46638   0.00000  Uiso   1.00
N16    N     0.46464   0.49997   0.96638   0.00000  Uiso   1.00
H39    H     0.93471   0.94900   0.44865   0.00000  Uiso   1.00
H40    H     0.43471   0.44900   0.94865   0.00000  Uiso   1.00
H41    H     0.97427   0.00000   0.52376   0.00000  Uiso   1.00
H42    H     0.47427   0.50000   0.02376   0.00000  Uiso   1.00
H43    H     0.01259   0.36068   0.00851   0.00000  Uiso   1.00
H44    H     0.51259   0.86068   0.50851   0.00000  Uiso   1.00
H45    H     0.98533   0.99996   0.31514   0.00000  Uiso   1.00
H46    H     0.48533   0.49996   0.81514   0.00000  Uiso   1.00
H47    H     0.97668   0.99998   0.85567   0.00000  Uiso   1.00
H48    H     0.47668   0.49998   0.35567   0.00000  Uiso   1.00
H49    H     0.01257   0.63924   0.00852   0.00000  Uiso   1.00
H50    H     0.51257   0.13924   0.50853   0.00000  Uiso   1.00
H51    H     0.23558   0.99996   0.34834   0.00000  Uiso   1.00
H52    H     0.73558   0.49996   0.84834   0.00000  Uiso   1.00
H53    H     0.19967   0.63926   0.19549   0.00000  Uiso   1.00
H54    H     0.69967   0.13926   0.69549   0.00000  Uiso   1.00
H55    H     0.97897   0.99997   0.71246   0.00000  Uiso   1.00
H56    H     0.47897   0.49997   0.21246   0.00000  Uiso   1.00
H57    H     0.01255   0.79626   0.00853   0.00000  Uiso   1.00
H58    H     0.51255   0.29626   0.50853   0.00000  Uiso   1.00
N17    N     0.21328   0.80772   0.20911   0.00000  Uiso   1.00
N18    N     0.71328   0.30772   0.70911   0.00000  Uiso   1.00
H59    H     0.24595   0.76718   0.24175   0.00000  Uiso   1.00
H60    H     0.74595   0.26718   0.74175   0.00000  Uiso   1.00
H61    H     0.24667   0.84364   0.18016   0.00000  Uiso   1.00
H62    H     0.74667   0.34364   0.68016   0.00000  Uiso   1.00
