data_DB5-hypotheticalMOF_8817_1_0_0_13_9_5_repeat
_audit_creation_date              2024-02-23
_audit_creation_method            'Materials Studio'
_symmetry_space_group_name_H-M    'P1'
_symmetry_Int_Tables_number       1
_symmetry_cell_setting            triclinic
loop_
_symmetry_equiv_pos_as_xyz
  x,y,z
_cell_length_a                    12.7594
_cell_length_b                    14.9085
_cell_length_c                    14.9083
_cell_angle_alpha                 83.6392
_cell_angle_beta                  86.7199
_cell_angle_gamma                 93.3221
loop_
_atom_site_label
_atom_site_type_symbol
_atom_site_fract_x
_atom_site_fract_y
_atom_site_fract_z
_atom_site_U_iso_or_equiv
_atom_site_adp_type
_atom_site_occupancy
Zn1    Zn    0.54417   0.61016   0.53253   0.00000  Uiso   1.00
Zn2    Zn    0.54405   0.46752   0.38990   0.00000  Uiso   1.00
Zn3    Zn    0.37924   0.61885   0.38119   0.00000  Uiso   1.00
Zn4    Zn    0.35768   0.45884   0.54121   0.00000  Uiso   1.00
O1     O     0.45629   0.53884   0.46121   0.00000  Uiso   1.00
O2     O     0.69117   0.59123   0.51362   0.00000  Uiso   1.00
O3     O     0.53116   0.49486   0.26208   0.00000  Uiso   1.00
O4     O     0.41019   0.74437   0.39399   0.00000  Uiso   1.00
O5     O     0.69109   0.48643   0.40883   0.00000  Uiso   1.00
O6     O     0.53136   0.73798   0.50518   0.00000  Uiso   1.00
O7     O     0.41007   0.60605   0.25569   0.00000  Uiso   1.00
O8     O     0.22936   0.59763   0.40241   0.00000  Uiso   1.00
O9     O     0.37345   0.47164   0.66672   0.00000  Uiso   1.00
O10    O     0.21352   0.48007   0.51998   0.00000  Uiso   1.00
O11    O     0.51046   0.58282   0.66034   0.00000  Uiso   1.00
O12    O     0.51026   0.33970   0.41725   0.00000  Uiso   1.00
O13    O     0.37333   0.33332   0.52842   0.00000  Uiso   1.00
C1     C     0.18332   0.53885   0.46119   0.00000  Uiso   1.00
C2     C     0.06654   0.53884   0.46121   0.00000  Uiso   1.00
C3     C     0.43947   0.30367   0.47474   0.00000  Uiso   1.00
C4     C     0.43237   0.20306   0.48056   0.00000  Uiso   1.00
C5     C     0.00346   0.47754   0.52234   0.00000  Uiso   1.00
C6     C     0.89374   0.47753   0.52235   0.00000  Uiso   1.00
C7     C     0.91018   0.60013   0.40010   0.00000  Uiso   1.00
C8     C     0.01990   0.60014   0.40009   0.00000  Uiso   1.00
C9     C     0.56174   0.02069   0.37583   0.00000  Uiso   1.00
C10    C     0.55508   0.92616   0.38130   0.00000  Uiso   1.00
C11    C     0.41238   0.91946   0.49696   0.00000  Uiso   1.00
C12    C     0.41905   0.01399   0.49150   0.00000  Uiso   1.00
C13    C     0.49373   0.06461   0.43093   0.00000  Uiso   1.00
C14    C     0.50039   0.15914   0.42546   0.00000  Uiso   1.00
C15    C     0.35770   0.15243   0.54113   0.00000  Uiso   1.00
C16    C     0.35103   0.05790   0.54660   0.00000  Uiso   1.00
C17    C     0.73032   0.53883   0.46123   0.00000  Uiso   1.00
C18    C     0.84709   0.53882   0.46124   0.00000  Uiso   1.00
C19    C     0.43956   0.52529   0.69729   0.00000  Uiso   1.00
C20    C     0.43244   0.51952   0.79790   0.00000  Uiso   1.00
C21    C     0.47319   0.77493   0.44764   0.00000  Uiso   1.00
C22    C     0.48040   0.87554   0.44186   0.00000  Uiso   1.00
C23    C     0.47301   0.55241   0.22604   0.00000  Uiso   1.00
C24    C     0.48036   0.55843   0.12542   0.00000  Uiso   1.00
C25    C     0.35106   0.45351   0.94302   0.00000  Uiso   1.00
C26    C     0.35776   0.45892   0.84849   0.00000  Uiso   1.00
C27    C     0.50043   0.57470   0.84184   0.00000  Uiso   1.00
C28    C     0.49374   0.56928   0.93636   0.00000  Uiso   1.00
C29    C     0.41905   0.50868   0.98695   0.00000  Uiso   1.00
C30    C     0.41236   0.50326   0.08148   0.00000  Uiso   1.00
C31    C     0.55503   0.61903   0.07483   0.00000  Uiso   1.00
C32    C     0.56172   0.62445   0.98030   0.00000  Uiso   1.00
H1     H     0.04143   0.42763   0.57210   0.00000  Uiso   1.00
N1     N     0.64228   0.07529   0.31050   0.00000  Uiso   1.00
H2     H     0.68435   0.03313   0.27642   0.00000  Uiso   1.00
H3     H     0.69102   0.11245   0.34511   0.00000  Uiso   1.00
N2     N     0.27051   0.38817   0.99760   0.00000  Uiso   1.00
H4     H     0.30742   0.34397   0.03924   0.00000  Uiso   1.00
H5     H     0.22847   0.35409   0.95537   0.00000  Uiso   1.00
H6     H     0.87220   0.65004   0.35034   0.00000  Uiso   1.00
H7     H     0.07127   0.65006   0.35031   0.00000  Uiso   1.00
H8     H     0.84238   0.42762   0.57214   0.00000  Uiso   1.00
H9     H     0.56120   0.20035   0.37614   0.00000  Uiso   1.00
N3     N     0.27048   0.00331   0.61191   0.00000  Uiso   1.00
H10    H     0.28330   0.01609   0.67565   0.00000  Uiso   1.00
H11    H     0.27661   0.93678   0.60694   0.00000  Uiso   1.00
N4     N     0.58098   0.64003   0.78725   0.00000  Uiso   1.00
H12    H     0.56815   0.70377   0.79996   0.00000  Uiso   1.00
H13    H     0.57484   0.63499   0.72073   0.00000  Uiso   1.00
H14    H     0.30239   0.41400   0.81272   0.00000  Uiso   1.00
H15    H     0.30231   0.18820   0.58599   0.00000  Uiso   1.00
N5     N     0.64230   0.68978   0.92574   0.00000  Uiso   1.00
H16    H     0.63623   0.68484   0.85919   0.00000  Uiso   1.00
H17    H     0.71514   0.67472   0.94309   0.00000  Uiso   1.00
N6     N     0.62844   0.87880   0.32187   0.00000  Uiso   1.00
H18    H     0.67676   0.92521   0.28268   0.00000  Uiso   1.00
H19    H     0.58591   0.84193   0.28222   0.00000  Uiso   1.00
H20    H     0.35158   0.87823   0.54628   0.00000  Uiso   1.00
H21    H     0.35155   0.45391   0.12267   0.00000  Uiso   1.00
H22    H     0.61039   0.66396   0.11061   0.00000  Uiso   1.00
