# Generated by REPEAT Assigner based on pymatgen
data_DB5-hypotheticalMOF_20655_1_1_1_10_17_0
_audit_creation_date              2022-05-24
_audit_creation_method            REPEAT_Assigner
_cell_length_a                    10.723023
_cell_length_b                    10.723024
_cell_length_c                    14.048226
_cell_angle_alpha                 89.994758
_cell_angle_beta                  89.993700
_cell_angle_gamma                 84.467709
_cell_volume                      1607.786349
_symmetry_space_group_name_H-M    P1
_symmetry_Int_Tables_number       1
loop_
    _symmetry_equiv_pos_site_id
    _symmetry_equiv_pos_as_xyz
    1  x,y,z
loop_
    _atom_site_type_symbol
    _atom_site_label
    _atom_site_fract_x
    _atom_site_fract_y
    _atom_site_fract_z
    _atom_type_partial_charge
    O   O1   0.657192  0.175025  0.920845  -0.723595
    O   O2   0.157192  0.675025  0.420845  -0.723611
    O   O3   0.294040  0.191780  0.920842  -0.702836
    O   O4   0.794040  0.691780  0.420842  -0.702836
    O   O5   0.483993  0.001826  0.920847  -0.701355
    O   O6   0.983993  0.501826  0.420847  -0.701450
    O   O7   0.467239  0.364979  0.920840  -0.721826
    O   O8   0.967239  0.864979  0.420840  -0.721846
    O   O9   0.483970  0.001815  0.079168  -0.722760
    O   O10  0.983970  0.501815  0.579168  -0.722805
    O   O11  0.294017  0.191768  0.079164  -0.640906
    O   O12  0.794017  0.691768  0.579164  -0.640912
    O   O13  0.657169  0.175014  0.079166  -0.662226
    O   O14  0.157169  0.675014  0.579166  -0.662229
    Zn  Zn1  0.475589  0.183389  0.104302  0.957254
    Zn  Zn2  0.975589  0.683389  0.604302  0.957263
    Zn  Zn3  0.475620  0.183404  0.895707  1.001824
    Zn  Zn4  0.975620  0.683404  0.395707  1.001844
    O   O15  0.467216  0.364967  0.079161  -0.744101
    O   O16  0.967216  0.864967  0.579161  -0.744120
    C   C1   0.247529  0.190555  0.000003  0.881647
    C   C2   0.747529  0.690555  0.500003  0.881667
    C   C3   0.108974  0.186908  0.000002  -0.345443
    C   C4   0.608974  0.686908  0.500002  -0.345442
    C   C5   0.903994  0.181506  0.082014  -0.031310
    C   C6   0.403994  0.681506  0.582014  -0.031293
    C   C7   0.047197  0.185276  0.082016  -0.033817
    C   C8   0.547197  0.685276  0.582016  -0.033828
    C   C9   0.482762  0.955321  0.000007  0.900984
    C   C10  0.982762  0.455321  0.500007  0.901082
    C   C11  0.479114  0.816767  0.000003  -0.220541
    C   C12  0.979114  0.316767  0.500003  -0.220531
    C   C13  0.585402  0.741784  0.000003  -0.203078
    C   C14  0.085402  0.241784  0.500003  -0.203077
    C   C15  0.581634  0.598580  0.999999  -0.047384
    C   C16  0.081634  0.098580  0.499999  -0.047401
    C   C17  0.703680  0.176239  0.000003  0.942125
    C   C18  0.203680  0.676239  0.500003  0.942154
    C   C19  0.842235  0.179886  0.999998  -0.347472
    C   C20  0.342235  0.679886  0.499998  -0.347494
    C   C21  0.468447  0.411473  0.000000  0.980766
    C   C22  0.968447  0.911473  0.500000  0.980788
    C   C23  0.472095  0.550027  0.999997  -0.323891
    C   C24  0.972095  0.050027  0.499997  -0.323878
    N   N1   0.475578  0.183378  0.246662  0.037935
    N   N2   0.975578  0.683378  0.746662  0.037956
    N   N3   0.475641  0.183405  0.753346  0.070930
    N   N4   0.975641  0.683405  0.253346  0.070955
    C   C25  0.559716  0.099302  0.296483  -0.080767
    C   C26  0.059716  0.599302  0.796483  -0.080779
    C   C27  0.559724  0.099301  0.396140  -0.136568
    C   C28  0.059724  0.599301  0.896140  -0.136560
    C   C29  0.475600  0.183384  0.445976  0.137330
    C   C30  0.975600  0.683384  0.945976  0.137312
    C   C31  0.391452  0.267464  0.396149  -0.118312
    C   C32  0.891452  0.767464  0.896149  -0.118302
    C   C33  0.391439  0.267458  0.296493  -0.089782
    C   C34  0.891439  0.767458  0.796493  -0.089805
    C   C35  0.391489  0.267473  0.603863  -0.038393
    C   C36  0.891489  0.767473  0.103863  -0.038413
    C   C37  0.391503  0.267482  0.703526  -0.144468
    C   C38  0.891503  0.767482  0.203526  -0.144487
    C   C39  0.559774  0.099317  0.703510  -0.132995
    C   C40  0.059774  0.599317  0.203510  -0.132988
    C   C41  0.559760  0.099311  0.603854  -0.062780
    C   C42  0.059760  0.599311  0.103854  -0.062814
    C   C43  0.475614  0.183393  0.554034  0.049627
    C   C44  0.975614  0.683393  0.054034  0.049662
    H   H1   0.895376  0.181297  0.929784  0.132905
    H   H2   0.395376  0.681297  0.429784  0.132902
    H   H3   0.679188  0.783606  0.000009  0.159380
    H   H4   0.179188  0.283606  0.500009  0.159377
    H   H5   0.672625  0.534148  0.000003  0.082590
    H   H6   0.172625  0.034148  0.500003  0.082591
    H   H7   0.628287  0.030855  0.744080  0.170269
    H   H8   0.128287  0.530855  0.244080  0.170286
    H   H9   0.381099  0.614452  0.000004  0.134297
    H   H10  0.881099  0.114452  0.500004  0.134299
    H   H11  0.100310  0.186663  0.152233  0.085701
    H   H12  0.600310  0.686663  0.652233  0.085701
    H   H13  0.385328  0.774945  0.999996  0.110524
    H   H14  0.885328  0.274945  0.499996  0.110514
    H   H15  0.628225  0.030838  0.255913  0.166936
    H   H16  0.128225  0.530838  0.755913  0.166943
    H   H17  0.850851  0.180109  0.152228  0.084775
    H   H18  0.350851  0.680109  0.652228  0.084766
    H   H19  0.628235  0.030840  0.436703  0.123216
    H   H20  0.128235  0.530840  0.936703  0.123215
    H   H21  0.055871  0.185511  0.929782  0.139496
    H   H22  0.555871  0.685511  0.429782  0.139501
    H   H23  0.322999  0.335949  0.744097  0.174973
    H   H24  0.822999  0.835949  0.244097  0.174981
    H   H25  0.628266  0.030851  0.563278  0.097931
    H   H26  0.128266  0.530851  0.063278  0.097938
    H   H27  0.322964  0.335938  0.563303  0.076098
    H   H28  0.822964  0.835938  0.063303  0.076113
    H   H29  0.322950  0.335921  0.436731  0.105774
    H   H30  0.822950  0.835921  0.936731  0.105765
    H   H31  0.322924  0.335919  0.255930  0.171315
    H   H32  0.822924  0.835919  0.755930  0.171328
