# Generated by REPEAT Assigner based on pymatgen
data_DB5-hypotheticalMOF_11031_0_0_0_6_10_14
_audit_creation_date              2022-05-24
_audit_creation_method            REPEAT_Assigner
_cell_length_a                    12.759401
_cell_length_b                    12.759399
_cell_length_c                    12.827885
_cell_angle_alpha                 89.971025
_cell_angle_beta                  89.981306
_cell_angle_gamma                 90.015446
_cell_volume                      2088.408579
_symmetry_space_group_name_H-M    P1
_symmetry_Int_Tables_number       1
loop_
    _symmetry_equiv_pos_site_id
    _symmetry_equiv_pos_as_xyz
    1  x,y,z
loop_
    _atom_site_type_symbol
    _atom_site_label
    _atom_site_fract_x
    _atom_site_fract_y
    _atom_site_fract_z
    _atom_type_partial_charge
    Zn  Zn1  0.606243  0.581775  0.409162  1.230656
    Zn  Zn2  0.606135  0.406059  0.583899  1.304717
    Zn  Zn3  0.430546  0.581724  0.583886  1.285820
    Zn  Zn4  0.430530  0.406138  0.409197  1.268211
    O   O1   0.518364  0.493924  0.496536  -1.592998
    O   O2   0.753250  0.558453  0.432331  -0.536679
    O   O3   0.582805  0.429307  0.730133  -0.611035
    O   O4   0.453905  0.728752  0.560688  -0.575975
    O   O5   0.753170  0.429356  0.560710  -0.572625
    O   O6   0.582988  0.728789  0.432319  -0.521127
    O   O7   0.453800  0.558368  0.730124  -0.647264
    O   O8   0.283523  0.558445  0.560723  -0.641135
    O   O9   0.453877  0.429491  0.262956  -0.505812
    O   O10  0.283511  0.429442  0.432380  -0.587305
    O   O11  0.582973  0.558530  0.262930  -0.380990
    O   O12  0.582789  0.259048  0.560744  -0.605471
    O   O13  0.453773  0.259107  0.432392  -0.617610
    C   C1   0.518296  0.220957  0.496550  0.579389
    C   C2   0.518363  0.104180  0.496522  0.156493
    C   C3   0.245396  0.493946  0.496553  0.550454
    C   C4   0.128620  0.493930  0.496536  -0.003429
    C   C5   0.964008  0.561167  0.563236  0.001226
    C   C6   0.073732  0.561189  0.563246  0.126163
    C   C7   0.073777  0.426652  0.429803  -0.197774
    C   C8   0.964055  0.426636  0.429788  -0.229036
    C   C9   0.909126  0.628423  0.629959  -0.139310
    C   C10  0.963961  0.695703  0.696690  -0.112935
    C   C11  0.073685  0.695725  0.696701  -0.053634
    C   C12  0.128574  0.628467  0.629979  -0.225401
    C   C13  0.451243  0.049216  0.563397  -0.022979
    C   C14  0.451314  0.939492  0.563381  0.104855
    C   C15  0.585629  0.939706  0.429604  -0.247134
    C   C16  0.585562  0.049428  0.429627  -0.223105
    C   C17  0.384044  0.103968  0.630293  -0.099901
    C   C18  0.316918  0.049004  0.697173  -0.116560
    C   C19  0.316989  0.939280  0.697156  0.005421
    C   C20  0.384187  0.884520  0.630259  -0.196991
    C   C21  0.792397  0.493901  0.496518  0.457351
    C   C22  0.909173  0.493892  0.496510  0.164332
    C   C23  0.518435  0.494025  0.223966  0.282988
    C   C24  0.518466  0.494068  0.107812  -0.104235
    C   C25  0.518460  0.767957  0.496498  0.444153
    C   C26  0.518501  0.884734  0.496482  0.072019
    C   C27  0.582353  0.557933  0.056015  0.000646
    C   C28  0.582386  0.557979  0.935964  -0.318797
    C   C29  0.518353  0.493899  0.768046  0.623780
    C   C30  0.518526  0.494152  0.884198  0.185555
    H   H1   0.819783  0.628411  0.629959  0.092451
    C   C31  0.243154  0.878817  0.770721  0.175706
    C   C32  0.169241  0.939046  0.844299  -0.246914
    C   C33  0.095398  0.878586  0.917861  -0.037795
    C   C34  0.095469  0.757896  0.917846  -0.270477
    C   C35  0.169385  0.697660  0.844265  0.086657
    C   C36  0.243228  0.758120  0.770703  -0.486513
    H   H2   0.169186  0.028394  0.844312  0.141948
    H   H3   0.040681  0.923178  0.972330  0.108683
    H   H4   0.040806  0.713140  0.972301  0.149929
    H   H5   0.169440  0.608312  0.844252  0.096918
    H   H6   0.297945  0.713528  0.716234  0.268254
    H   H7   0.919408  0.371857  0.375451  0.140076
    H   H8   0.637086  0.612653  0.891420  0.150376
    H   H9   0.640218  0.094180  0.375171  0.132964
    C   C37  0.656217  0.631755  0.116164  0.279346
    C   C38  0.610634  0.714145  0.191220  -0.329646
    C   C39  0.684502  0.787968  0.251367  -0.056044
    C   C40  0.803952  0.779402  0.236457  -0.213846
    C   C41  0.849542  0.697009  0.161398  -0.037571
    C   C42  0.775674  0.623185  0.101251  -0.318526
    H   H10  0.522204  0.720489  0.202260  0.179680
    H   H11  0.650752  0.848961  0.306931  0.082076
    H   H12  0.858633  0.834050  0.280982  0.126470
    H   H13  0.937972  0.690664  0.150358  0.104086
    H   H14  0.809423  0.562193  0.045687  0.157456
    C   C43  0.444626  0.420279  0.944359  -0.084196
    C   C44  0.362205  0.465850  0.019419  -0.083569
    C   C45  0.288305  0.391977  0.079588  -0.153649
    C   C46  0.296826  0.272532  0.064697  -0.132353
    C   C47  0.379250  0.226955  0.989633  -0.116149
    C   C48  0.453150  0.300828  0.929464  -0.215073
    H   H15  0.355895  0.554276  0.030445  0.118088
    H   H16  0.227290  0.425717  0.135155  0.127801
    H   H17  0.242121  0.217847  0.109238  0.137437
    H   H18  0.385561  0.138529  0.978607  0.127106
    H   H19  0.514166  0.267088  0.873897  0.165654
    H   H20  0.919263  0.750468  0.751006  0.085922
    H   H21  0.118328  0.750516  0.751029  0.161956
    H   H22  0.217919  0.628501  0.629983  0.208111
    H   H23  0.118477  0.371893  0.375482  0.177809
    H   H24  0.463787  0.439431  0.063281  0.268185
    H   H25  0.262213  0.093595  0.751644  0.105883
    H   H26  0.383977  0.193311  0.630312  0.080891
    H   H27  0.384246  0.795175  0.630258  0.151305
    H   H28  0.640337  0.895112  0.375139  0.236114
