# Generated by REPEAT Assigner based on pymatgen
data_DB5-hypotheticalMOF_6822_0_0_0_11_17_13
_audit_creation_date              2022-05-24
_audit_creation_method            REPEAT_Assigner
_cell_length_a                    13.032831
_cell_length_b                    17.077402
_cell_length_c                    17.077396
_cell_angle_alpha                 90.029784
_cell_angle_beta                  82.809156
_cell_angle_gamma                 97.172756
_cell_volume                      3741.016439
_symmetry_space_group_name_H-M    P1
_symmetry_Int_Tables_number       1
loop_
    _symmetry_equiv_pos_site_id
    _symmetry_equiv_pos_as_xyz
    1  x,y,z
loop_
    _atom_site_type_symbol
    _atom_site_label
    _atom_site_fract_x
    _atom_site_fract_y
    _atom_site_fract_z
    _atom_type_partial_charge
    Zn  Zn1  0.597631  0.465146  0.404033  1.318083
    Zn  Zn2  0.597508  0.596409  0.535313  1.317271
    Zn  Zn3  0.422874  0.448477  0.551926  1.315978
    Zn  Zn4  0.422832  0.579673  0.420723  1.323864
    O   O1   0.510211  0.522426  0.477999  -1.612679
    O   O2   0.743854  0.496538  0.407510  -0.612637
    O   O3   0.574308  0.576813  0.647367  -0.623645
    O   O4   0.446126  0.340848  0.532275  -0.626446
    O   O5   0.743763  0.592977  0.503961  -0.625377
    O   O6   0.574519  0.353094  0.423618  -0.628548
    O   O7   0.446006  0.468128  0.659572  -0.611575
    O   O8   0.276629  0.451900  0.548459  -0.542322
    O   O9   0.446053  0.564453  0.308659  -0.574218
    O   O10  0.276598  0.548290  0.452065  -0.621097
    O   O11  0.574478  0.480310  0.296396  -0.558722
    O   O12  0.574267  0.704029  0.520145  -0.572534
    O   O13  0.445933  0.691734  0.435956  -0.583729
    C   C1   0.510110  0.726365  0.478040  0.419176
    C   C2   0.510163  0.813619  0.478022  0.270790
    C   C3   0.238696  0.496471  0.503875  0.416505
    C   C4   0.122540  0.485386  0.514926  0.399527
    C   C5   0.510274  0.522374  0.273248  0.395228
    C   C6   0.510301  0.522352  0.185996  0.253561
    C   C7   0.070766  0.528212  0.472231  -0.360078
    C   C8   0.950714  0.516756  0.483652  -0.167167
    C   C9   0.782787  0.548484  0.452021  0.580803
    C   C10  0.898943  0.559588  0.440951  -0.038239
    C   C11  0.510341  0.317694  0.477938  0.543145
    C   C12  0.510396  0.230450  0.477912  0.267219
    C   C13  0.577054  0.860992  0.521799  -0.423304
    C   C14  0.577106  0.942978  0.521774  0.365279
    C   C15  0.510259  0.977588  0.477976  -0.173581
    C   C16  0.443364  0.930209  0.434194  -0.067804
    C   C17  0.443319  0.848226  0.434215  -0.299415
    C   C18  0.443461  0.101088  0.434155  -0.176284
    C   C19  0.443505  0.183077  0.434135  -0.245066
    C   C20  0.577247  0.195840  0.521714  -0.240645
    C   C21  0.577202  0.113857  0.521735  -0.201934
    C   C22  0.510306  0.066483  0.477954  0.185829
    C   C23  0.577175  0.478535  0.138619  -0.229047
    C   C24  0.577187  0.478510  0.056637  -0.184897
    C   C25  0.510331  0.522307  0.022034  0.164574
    C   C26  0.443451  0.566126  0.069417  -0.160929
    C   C27  0.443433  0.566146  0.151397  -0.253567
    C   C28  0.443493  0.566083  0.898543  0.427717
    C   C29  0.443511  0.566064  0.816556  -0.467940
    C   C30  0.577246  0.478447  0.803783  -0.350460
    C   C31  0.577229  0.478467  0.885763  -0.082986
    C   C32  0.510350  0.522287  0.933141  -0.151565
    C   C33  0.510208  0.522427  0.681947  0.519305
    C   C34  0.510384  0.522247  0.769179  0.355834
    H   H1   0.906164  0.471603  0.528660  0.192432
    H   H2   0.388968  0.601818  0.189972  0.148787
    H   H3   0.943490  0.604733  0.395934  0.106225
    O   O14  0.069358  0.431637  0.568718  -0.338933
    C   C35  0.006161  0.470283  0.625453  0.094536
    H   H4   0.039096  0.535222  0.627289  -0.001386
    H   H5   0.923490  0.465179  0.609002  -0.004391
    C   C36  0.963866  0.351907  0.704912  0.076726
    C   C37  0.004321  0.431666  0.707172  0.250611
    H   H6   0.962726  0.328085  0.755321  -0.026530
    H   H7   0.006439  0.325870  0.666688  -0.038077
    H   H8   0.894977  0.347665  0.691200  -0.040774
    H   H9   0.073213  0.435906  0.720874  -0.049039
    H   H10  0.961759  0.457703  0.745401  -0.088177
    H   H11  0.389068  0.601726  0.788385  0.186479
    H   H12  0.631484  0.832818  0.557468  0.216327
    O   O15  0.642114  0.988877  0.564372  -0.197046
    C   C38  0.701117  0.940750  0.603022  -0.067166
    H   H13  0.658279  0.878249  0.609859  0.020920
    H   H14  0.780461  0.939540  0.566673  0.048397
    C   C39  0.768869  0.051007  0.676712  -0.041663
    C   C40  0.716251  0.974243  0.685115  0.315024
    H   H15  0.778209  0.071668  0.727350  -0.003596
    H   H16  0.729121  0.083432  0.650671  -0.001974
    H   H17  0.834983  0.049988  0.646418  -0.000180
    H   H18  0.650133  0.975265  0.715400  -0.066104
    H   H19  0.755988  0.941819  0.711163  -0.070921
    H   H20  0.115320  0.573355  0.427220  0.200820
    H   H21  0.388851  0.809655  0.398566  0.162152
    H   H22  0.389092  0.211256  0.398454  0.137243
    H   H23  0.631720  0.234416  0.557359  0.131015
    H   H24  0.631628  0.085677  0.557402  0.142247
    H   H25  0.388991  0.062519  0.398500  0.131226
    H   H26  0.388941  0.958395  0.398529  0.113249
    H   H27  0.631675  0.442809  0.913935  0.134160
    H   H28  0.631620  0.442873  0.166787  0.151141
    H   H29  0.631644  0.442832  0.018066  0.122475
    H   H30  0.631700  0.442766  0.765204  0.160916
    O   O16  0.378655  0.608781  0.944525  -0.338865
    C   C41  0.401453  0.689186  0.922321  0.087806
    H   H31  0.484936  0.701107  0.891812  -0.008211
    H   H32  0.345416  0.704346  0.880094  0.016569
    C   C42  0.286748  0.725789  0.033794  0.078177
    C   C43  0.389286  0.740433  0.996328  0.223980
    H   H33  0.279239  0.757402  0.079443  -0.021242
    H   H34  0.271385  0.671619  0.048752  -0.049992
    H   H35  0.240062  0.738423  0.998597  -0.025930
    H   H36  0.435969  0.727790  0.031521  -0.052041
    H   H37  0.404657  0.794602  0.981377  -0.062873
    H   H38  0.389011  0.601783  0.041236  0.174217
