# Generated by REPEAT Assigner based on pymatgen
data_DB5-hypotheticalMOF_2628_0_0_0_25_7_13
_audit_creation_date              2022-05-24
_audit_creation_method            REPEAT_Assigner
_cell_length_a                    19.805407
_cell_length_b                    12.759400
_cell_length_c                    12.759393
_cell_angle_alpha                 89.968095
_cell_angle_beta                  89.979299
_cell_angle_gamma                 90.012001
_cell_volume                      3224.363031
_symmetry_space_group_name_H-M    P1
_symmetry_Int_Tables_number       1
loop_
    _symmetry_equiv_pos_site_id
    _symmetry_equiv_pos_as_xyz
    1  x,y,z
loop_
    _atom_site_type_symbol
    _atom_site_label
    _atom_site_fract_x
    _atom_site_fract_y
    _atom_site_fract_z
    _atom_type_partial_charge
    Zn  Zn1  0.034810  0.581724  0.405952  1.217169
    Zn  Zn2  0.034742  0.406004  0.581632  1.250663
    Zn  Zn3  0.921619  0.581677  0.581620  1.262797
    Zn  Zn4  0.921611  0.406095  0.405998  1.302607
    O   O1   0.978196  0.493875  0.493801  -1.534563
    O   O2   0.129518  0.558396  0.429243  -0.677534
    O   O3   0.019711  0.429250  0.728652  -0.571579
    O   O4   0.936666  0.728704  0.558293  -0.623992
    O   O5   0.129468  0.429296  0.558314  -0.621768
    O   O6   0.019827  0.728739  0.429231  -0.617677
    O   O7   0.936600  0.558316  0.728643  -0.508203
    O   O8   0.826902  0.558403  0.558338  -0.563770
    O   O9   0.936653  0.429450  0.258971  -0.624808
    O   O10  0.826896  0.429404  0.429309  -0.588505
    O   O11  0.019819  0.558484  0.258937  -0.611754
    O   O12  0.019704  0.258995  0.558358  -0.561895
    O   O13  0.936587  0.259062  0.429320  -0.602561
    C   C1   0.802340  0.493908  0.493826  0.489543
    C   C2   0.727108  0.493897  0.493812  0.079953
    C   C3   0.978156  0.220907  0.493823  0.504110
    C   C4   0.978200  0.104131  0.493797  0.041537
    C   C5   0.021527  0.049269  0.560913  0.129465
    C   C6   0.021569  0.939545  0.560880  -0.241865
    C   C7   0.934951  0.939554  0.426613  0.180463
    C   C8   0.934913  0.049276  0.426641  -0.346139
    C   C9   0.071534  0.049263  0.638434  -0.254183
    C   C10  0.071575  0.939539  0.638401  0.494093
    C   C11  0.691790  0.561000  0.426503  -0.170852
    C   C12  0.621102  0.560995  0.426499  -0.266560
    C   C13  0.585732  0.493879  0.493800  0.272800
    C   C14  0.621055  0.426773  0.561117  -0.338960
    C   C15  0.691742  0.426784  0.561125  0.225144
    C   C16  0.335981  0.426725  0.561084  -0.194224
    C   C17  0.265289  0.426717  0.561068  -0.205974
    C   C18  0.265341  0.560936  0.426458  0.150489
    C   C19  0.336028  0.560948  0.426466  0.180433
    C   C20  0.371345  0.493845  0.493787  0.061808
    C   C21  0.447993  0.493853  0.493792  -0.035661
    C   C22  0.509085  0.493865  0.493790  -0.210333
    C   C23  0.154739  0.493841  0.493774  0.617940
    C   C24  0.229970  0.493827  0.493763  -0.017776
    C   C25  0.978243  0.493982  0.219767  0.484302
    C   C26  0.978263  0.494028  0.102991  0.341460
    C   C27  0.978255  0.767908  0.493756  0.624529
    C   C28  0.978280  0.884685  0.493737  0.027151
    C   C29  0.935018  0.561272  0.938391  -0.205405
    C   C30  0.935001  0.561242  0.048116  -0.127364
    C   C31  0.021549  0.426847  0.048136  -0.314334
    C   C32  0.021569  0.426883  0.938413  -0.188185
    C   C33  0.885047  0.638861  0.938381  0.350029
    C   C34  0.885031  0.638831  0.048105  0.350128
    C   C35  0.978188  0.493843  0.766768  0.414763
    C   C36  0.978299  0.494094  0.883544  0.170342
    H   H1   0.899639  0.093944  0.371981  0.244534
    O   O14  0.130985  0.899155  0.603400  -0.469351
    C   C37  0.142816  0.933460  0.499949  0.166905
    H   H2   0.113445  0.008827  0.485012  -0.046408
    H   H3   0.125508  0.870534  0.442526  0.028490
    C   C38  0.254869  0.861559  0.503037  0.171102
    C   C39  0.218800  0.954131  0.484694  0.127095
    H   H4   0.301739  0.874306  0.493624  -0.060635
    H   H5   0.246898  0.838443  0.572733  -0.068944
    H   H6   0.240439  0.809129  0.455182  -0.029138
    H   H7   0.233224  0.006554  0.532557  -0.023030
    H   H8   0.226775  0.977256  0.415005  -0.061992
    H   H9   0.832597  0.617046  0.077896  -0.002472
    H   H10  0.123938  0.079117  0.616579  0.097737
    H   H11  0.052770  0.083211  0.715761  0.060724
    O   O15  0.825644  0.603966  0.897916  -0.403577
    C   C40  0.813749  0.500511  0.932150  0.107115
    H   H12  0.843075  0.485491  0.007537  -0.066384
    H   H13  0.831062  0.443100  0.869207  0.038803
    C   C41  0.701734  0.503789  0.860141  0.174824
    C   C42  0.737748  0.485345  0.952738  0.125976
    H   H14  0.654853  0.494431  0.872837  -0.059677
    H   H15  0.709748  0.573488  0.837074  -0.066066
    H   H16  0.716169  0.455945  0.807699  -0.019684
    H   H17  0.723319  0.533197  0.005175  -0.029247
    H   H18  0.729730  0.415654  0.975815  -0.042814
    O   O16  0.892880  0.886429  0.361286  -0.177162
    C   C43  0.854617  0.958384  0.302074  -0.062564
    H   H19  0.882311  0.036635  0.298423  0.007482
    H   H20  0.803220  0.969958  0.340620  0.057794
    C   C44  0.810828  0.819537  0.194741  0.026383
    C   C45  0.844844  0.915644  0.190249  0.231578
    H   H21  0.804797  0.793172  0.125763  -0.018072
    H   H22  0.836604  0.771059  0.234635  -0.045973
    H   H23  0.768001  0.829195  0.226867  -0.029405
    H   H24  0.887674  0.905983  0.158136  -0.019666
    H   H25  0.819075  0.964120  0.150347  -0.063180
    O   O17  0.907539  0.730944  0.088742  -0.414195
    C   C46  0.965125  0.712200  0.150921  0.253111
    H   H26  0.990016  0.635845  0.125292  -0.051105
    H   H27  0.949551  0.705985  0.236726  -0.036126
    C   C47  0.984868  0.897046  0.169032  0.152988
    C   C48  0.015444  0.803269  0.137547  0.045461
    H   H28  0.015907  0.953222  0.160787  -0.062384
    H   H29  0.946071  0.909674  0.127144  -0.045740
    H   H30  0.971892  0.891851  0.240534  -0.032700
    H   H31  0.028412  0.808460  0.066044  -0.036621
    H   H32  0.054245  0.790643  0.179423  0.052781
    H   H33  0.592251  0.372131  0.615919  0.181203
    H   H34  0.056778  0.372127  0.092823  0.159567
    O   O18  0.370460  0.626195  0.361236  -0.263253
    C   C49  0.411323  0.694143  0.420945  -0.142735
    H   H35  0.421886  0.657181  0.500629  0.047517
    H   H36  0.384084  0.772011  0.432351  0.083566
    C   C50  0.465515  0.758506  0.265249  -0.181058
    C   C51  0.478493  0.713105  0.363116  0.366915
    H   H37  0.506948  0.770208  0.229577  0.019110
    H   H38  0.437984  0.712732  0.225022  0.029336
    H   H39  0.442814  0.823391  0.274769  0.037979
    H   H40  0.501186  0.648216  0.353595  -0.010038
    H   H41  0.506030  0.758869  0.403341  -0.082188
    H   H42  0.057571  0.909677  0.719783  -0.008571
    H   H43  0.899105  0.720240  0.908584  0.009543
    H   H44  0.720583  0.615651  0.371695  0.149480
    H   H45  0.592349  0.615636  0.371686  0.142135
    H   H46  0.236493  0.372061  0.615877  0.163756
    O   O19  0.230959  0.625983  0.361017  -0.158608
    C   C52  0.190097  0.566081  0.293242  -0.085063
    H   H47  0.179488  0.486506  0.330436  0.022945
    H   H48  0.217361  0.554445  0.215408  0.037194
    C   C53  0.135993  0.721594  0.228425  -0.067387
    C   C54  0.122958  0.623861  0.274111  0.072664
    H   H49  0.094579  0.757237  0.216620  -0.043478
    H   H50  0.163524  0.761952  0.274083  -0.007417
    H   H51  0.158714  0.711884  0.163569  0.009216
    H   H52  0.100245  0.633573  0.338972  0.204154
    H   H53  0.095422  0.583506  0.228464  0.050943
    H   H54  0.364728  0.372085  0.615900  0.140344
    H   H55  0.056819  0.372189  0.893761  0.171555
    O   O20  0.725947  0.361496  0.626539  -0.199024
    C   C55  0.679573  0.302271  0.685956  -0.042500
    H   H56  0.629197  0.298575  0.642924  0.032301
    H   H57  0.672035  0.340836  0.765682  0.033101
    C   C56  0.769023  0.195016  0.754147  0.056815
    C   C57  0.707151  0.190469  0.701289  0.292627
    H   H58  0.786034  0.126052  0.763610  -0.024717
    H   H59  0.800266  0.234919  0.714120  -0.051998
    H   H60  0.762733  0.227157  0.820580  -0.030987
    H   H61  0.713443  0.158340  0.634853  -0.063006
    H   H62  0.675909  0.150558  0.741305  -0.075804
