data_DB5-hypotheticalMOF_15429_1_0_0_22_9_5_repeat
_audit_creation_date              2024-02-23
_audit_creation_method            'Materials Studio'
_symmetry_space_group_name_H-M    'P1'
_symmetry_Int_Tables_number       1
_symmetry_cell_setting            triclinic
loop_
_symmetry_equiv_pos_as_xyz
  x,y,z
_cell_length_a                    17.6403
_cell_length_b                    17.6396
_cell_length_c                    12.7594
_cell_angle_alpha                 78.7568
_cell_angle_beta                  78.7690
_cell_angle_gamma                 87.8212
loop_
_atom_site_label
_atom_site_type_symbol
_atom_site_fract_x
_atom_site_fract_y
_atom_site_fract_z
_atom_site_U_iso_or_equiv
_atom_site_adp_type
_atom_site_occupancy
Zn1    Zn    0.93212   0.22230   0.09515   0.00000  Uiso   1.00
Zn2    Zn    0.80510   0.24790   0.29804   0.00000  Uiso   1.00
Zn3    Zn    0.90644   0.09529   0.31190   0.00000  Uiso   1.00
Zn4    Zn    0.77953   0.12095   0.16345   0.00000  Uiso   1.00
O1     O     0.85580   0.17161   0.21714   0.00000  Uiso   1.00
O2     O     0.93672   0.33198   0.08769   0.00000  Uiso   1.00
O3     O     0.81850   0.22764   0.44692   0.00000  Uiso   1.00
O4     O     0.01613   0.09068   0.26037   0.00000  Uiso   1.00
O5     O     0.84340   0.35079   0.23675   0.00000  Uiso   1.00
O6     O     0.03499   0.18400   0.10113   0.00000  Uiso   1.00
O7     O     0.89296   0.11551   0.45710   0.00000  Uiso   1.00
O8     O     0.86816   0.99241   0.32659   0.00000  Uiso   1.00
O9     O     0.79981   0.13442   0.00735   0.00000  Uiso   1.00
O10    O     0.77492   0.01126   0.21752   0.00000  Uiso   1.00
O11    O     0.91193   0.20888   0.95717   0.00000  Uiso   1.00
O12    O     0.69543   0.25252   0.30297   0.00000  Uiso   1.00
O13    O     0.67664   0.15924   0.20408   0.00000  Uiso   1.00
C1     C     0.81598   0.97428   0.28097   0.00000  Uiso   1.00
C2     C     0.79892   0.88986   0.30826   0.00000  Uiso   1.00
C3     C     0.98537   0.56332   0.00957   0.00000  Uiso   1.00
C4     C     0.96933   0.48400   0.03524   0.00000  Uiso   1.00
C5     C     0.87231   0.50358   0.19062   0.00000  Uiso   1.00
C6     C     0.88834   0.58290   0.16496   0.00000  Uiso   1.00
C7     C     0.94488   0.61276   0.07444   0.00000  Uiso   1.00
C8     C     0.84785   0.63234   0.22982   0.00000  Uiso   1.00
C9     C     0.86388   0.71166   0.20417   0.00000  Uiso   1.00
C10    C     0.92041   0.74152   0.11366   0.00000  Uiso   1.00
C11    C     0.96091   0.69207   0.04879   0.00000  Uiso   1.00
C12    C     0.79132   0.60248   0.32035   0.00000  Uiso   1.00
C13    C     0.75082   0.65192   0.38521   0.00000  Uiso   1.00
C14    C     0.76685   0.73124   0.35956   0.00000  Uiso   1.00
C15    C     0.82338   0.76111   0.26904   0.00000  Uiso   1.00
C16    C     0.72636   0.78069   0.42443   0.00000  Uiso   1.00
C17    C     0.74239   0.86000   0.39878   0.00000  Uiso   1.00
C18    C     0.83942   0.84042   0.24339   0.00000  Uiso   1.00
C19    C     0.65849   0.21146   0.25940   0.00000  Uiso   1.00
C20    C     0.57409   0.22858   0.27742   0.00000  Uiso   1.00
C21    C     0.24743   0.04187   0.07973   0.00000  Uiso   1.00
C22    C     0.16813   0.05796   0.09670   0.00000  Uiso   1.00
C23    C     0.18777   0.15514   0.19952   0.00000  Uiso   1.00
C24    C     0.26708   0.13907   0.18255   0.00000  Uiso   1.00
C25    C     0.29690   0.08243   0.12266   0.00000  Uiso   1.00
C26    C     0.31654   0.17962   0.22548   0.00000  Uiso   1.00
C27    C     0.39584   0.16355   0.20852   0.00000  Uiso   1.00
C28    C     0.42568   0.10691   0.14864   0.00000  Uiso   1.00
C29    C     0.37620   0.06635   0.10570   0.00000  Uiso   1.00
C30    C     0.28672   0.23626   0.28538   0.00000  Uiso   1.00
C31    C     0.33619   0.27681   0.32831   0.00000  Uiso   1.00
C32    C     0.41549   0.26074   0.31134   0.00000  Uiso   1.00
C33    C     0.44532   0.20410   0.25145   0.00000  Uiso   1.00
C34    C     0.46496   0.30130   0.35427   0.00000  Uiso   1.00
C35    C     0.54426   0.28522   0.33732   0.00000  Uiso   1.00
C36    C     0.52462   0.18803   0.23450   0.00000  Uiso   1.00
C37    C     0.05389   0.13162   0.17468   0.00000  Uiso   1.00
C38    C     0.13830   0.11458   0.15658   0.00000  Uiso   1.00
C39    C     0.89577   0.36971   0.15305   0.00000  Uiso   1.00
C40    C     0.91281   0.45413   0.12574   0.00000  Uiso   1.00
C41    C     0.85588   0.17165   0.94307   0.00000  Uiso   1.00
C42    C     0.85592   0.17167   0.82628   0.00000  Uiso   1.00
C43    C     0.91430   0.21044   0.74529   0.00000  Uiso   1.00
C44    C     0.91434   0.21045   0.63555   0.00000  Uiso   1.00
C45    C     0.79760   0.13291   0.68781   0.00000  Uiso   1.00
C46    C     0.79756   0.13290   0.79754   0.00000  Uiso   1.00
C47    C     0.85578   0.17160   0.49011   0.00000  Uiso   1.00
C48    C     0.85599   0.17169   0.60681   0.00000  Uiso   1.00
H1     H     0.93347   0.80611   0.09278   0.00000  Uiso   1.00
N1     N     0.43279   0.36238   0.41887   0.00000  Uiso   1.00
H2     H     0.47616   0.38564   0.44349   0.00000  Uiso   1.00
H3     H     0.39361   0.33816   0.48457   0.00000  Uiso   1.00
N2     N     0.02188   0.72429   0.95114   0.00000  Uiso   1.00
H4     H     0.04510   0.68094   0.91394   0.00000  Uiso   1.00
H5     H     0.06371   0.75007   0.97566   0.00000  Uiso   1.00
N3     N     0.59762   0.32896   0.38362   0.00000  Uiso   1.00
H6     H     0.56670   0.36728   0.42413   0.00000  Uiso   1.00
H7     H     0.63766   0.35741   0.32240   0.00000  Uiso   1.00
N4     N     0.11477   0.01421   0.05039   0.00000  Uiso   1.00
H8     H     0.06001   0.03299   0.07022   0.00000  Uiso   1.00
H9     H     0.11764   0.95718   0.08140   0.00000  Uiso   1.00
N5     N     0.90037   0.87265   0.14574   0.00000  Uiso   1.00
H10    H     0.94225   0.89843   0.17015   0.00000  Uiso   1.00
H11    H     0.87603   0.91178   0.09316   0.00000  Uiso   1.00
N6     N     0.30400   0.33790   0.39290   0.00000  Uiso   1.00
H12    H     0.32880   0.38935   0.35600   0.00000  Uiso   1.00
H13    H     0.31539   0.32328   0.46883   0.00000  Uiso   1.00
H14    H     0.68033   0.75636   0.49814   0.00000  Uiso   1.00
H15    H     0.40049   0.02024   0.05692   0.00000  Uiso   1.00
N7     N     0.04634   0.59553   0.91193   0.00000  Uiso   1.00
H16    H     0.06956   0.55218   0.87472   0.00000  Uiso   1.00
H17    H     0.08817   0.62132   0.93644   0.00000  Uiso   1.00
H18    H     0.75009   0.10134   0.66440   0.00000  Uiso   1.00
H19    H     0.27172   0.99576   0.03095   0.00000  Uiso   1.00
H20    H     0.16347   0.20125   0.24829   0.00000  Uiso   1.00
H21    H     0.00231   0.44374   0.98242   0.00000  Uiso   1.00
H22    H     0.82628   0.47925   0.26432   0.00000  Uiso   1.00
H23    H     0.77828   0.53789   0.34125   0.00000  Uiso   1.00
N8     N     0.20119   0.25360   0.30367   0.00000  Uiso   1.00
H24    H     0.18494   0.27140   0.23116   0.00000  Uiso   1.00
H25    H     0.18986   0.29560   0.34817   0.00000  Uiso   1.00
H26    H     0.96188   0.24202   0.56961   0.00000  Uiso   1.00
H27    H     0.96182   0.24201   0.76868   0.00000  Uiso   1.00
H28    H     0.70480   0.62760   0.45892   0.00000  Uiso   1.00
N9     N     0.73460   0.09106   0.88491   0.00000  Uiso   1.00
H29    H     0.69764   0.06650   0.85006   0.00000  Uiso   1.00
H30    H     0.70568   0.12905   0.92799   0.00000  Uiso   1.00
H31    H     0.70941   0.90026   0.45160   0.00000  Uiso   1.00
H32    H     0.54890   0.14191   0.18572   0.00000  Uiso   1.00
H33    H     0.49025   0.09381   0.13484   0.00000  Uiso   1.00
