# Generated by REPEAT Assigner based on pymatgen
data_DB5-hypotheticalMOF_22182_1_0_1_11_11_2
_audit_creation_date              2022-05-24
_audit_creation_method            REPEAT_Assigner
_cell_length_a                    10.968094
_cell_length_b                    10.967829
_cell_length_c                    10.065875
_cell_angle_alpha                 86.921207
_cell_angle_beta                  93.118877
_cell_angle_gamma                 87.247546
_cell_volume                      1205.770675
_symmetry_space_group_name_H-M    P1
_symmetry_Int_Tables_number       1
loop_
    _symmetry_equiv_pos_site_id
    _symmetry_equiv_pos_as_xyz
    1  x,y,z
loop_
    _atom_site_type_symbol
    _atom_site_label
    _atom_site_fract_x
    _atom_site_fract_y
    _atom_site_fract_z
    _atom_type_partial_charge
    O   O1   0.622257  0.210019  0.218612  -0.657950
    O   O2   0.272372  0.213467  0.135519  -0.641723
    O   O3   0.449060  0.036823  0.218620  -0.676439
    O   O4   0.445568  0.386663  0.135510  -0.675105
    O   O5   0.415375  0.070648  0.429731  -0.671310
    O   O6   0.238686  0.247292  0.346629  -0.678050
    O   O7   0.588571  0.243844  0.429723  -0.685372
    Zn  Zn1  0.408280  0.250938  0.421694  0.957151
    Zn  Zn2  0.452663  0.206373  0.143547  1.017842
    O   O8   0.411882  0.420488  0.346621  -0.673517
    C   C1   0.210611  0.227574  0.231170  0.868392
    C   C2   0.076768  0.219201  0.201663  -0.207677
    C   C3   0.429418  0.008822  0.334079  0.931009
    C   C4   0.421063  0.874995  0.363584  -0.441469
    C   C5   0.861307  0.224324  0.267368  -0.070131
    C   C6   0.999638  0.232988  0.297876  0.101837
    C   C7   0.434789  0.797813  0.267376  0.142633
    C   C8   0.426153  0.659495  0.297868  -0.064633
    C   C9   0.650332  0.229737  0.334068  0.895326
    C   C10  0.784176  0.238108  0.363567  -0.160037
    C   C11  0.431525  0.448488  0.231160  0.883758
    C   C12  0.439881  0.582315  0.201646  -0.149598
    N   N1   0.377999  0.281353  0.611525  0.022940
    N   N2   0.482953  0.175949  0.953721  -0.202261
    C   C13  0.442119  0.216947  0.709532  -0.045298
    C   C14  0.418823  0.240364  0.855713  0.014541
    H   H1   0.824933  0.206101  0.162426  0.119995
    Cl  Cl1  0.266608  0.393250  0.649050  0.083499
    Cl  Cl2  0.840326  0.266222  0.525601  -0.055875
    Cl  Cl3  0.055782  0.261103  0.459917  0.031497
    Cl  Cl4  0.462830  0.853880  0.105354  0.030612
    Cl  Cl5  0.020626  0.191105  0.039616  -0.047146
    H   H2   0.408001  0.623178  0.402815  0.116693
    Cl  Cl6  0.467849  0.638379  0.039598  -0.077228
    H   H3   0.402912  0.838672  0.468524  0.175542
    Cl  Cl7  0.553220  0.104762  0.672006  0.143524
    H   H4   0.346672  0.312842  0.880018  0.141363
    H   H5   0.555095  0.103462  0.929416  0.202667
