# Generated by REPEAT Assigner based on pymatgen
data_DB5-hypotheticalMOF_18051_1_0_1_21_2_12
_audit_creation_date              2022-05-24
_audit_creation_method            REPEAT_Assigner
_cell_length_a                    9.065215
_cell_length_b                    16.109304
_cell_length_c                    8.140239
_cell_angle_alpha                 89.999293
_cell_angle_beta                  89.997810
_cell_angle_gamma                 84.238668
_cell_volume                      1182.749365
_symmetry_space_group_name_H-M    P1
_symmetry_Int_Tables_number       1
loop_
    _symmetry_equiv_pos_site_id
    _symmetry_equiv_pos_as_xyz
    1  x,y,z
loop_
    _atom_site_type_symbol
    _atom_site_label
    _atom_site_fract_x
    _atom_site_fract_y
    _atom_site_fract_z
    _atom_type_partial_charge
    O   O1   0.957453  0.121893  0.863417  -0.639290
    O   O2   0.527926  0.131895  0.863411  -0.638118
    O   O3   0.754487  0.005954  0.863413  -0.537424
    O   O4   0.730892  0.247835  0.863415  -0.568377
    O   O5   0.754475  0.005953  0.136640  -0.570645
    O   O6   0.527914  0.131894  0.136638  -0.640481
    O   O7   0.957441  0.121892  0.136644  -0.638169
    Zn  Zn1  0.742675  0.126893  0.180022  0.950257
    Zn  Zn2  0.742692  0.126895  0.820033  0.947482
    O   O8   0.730880  0.247833  0.136642  -0.534900
    C   C1   0.472956  0.130934  0.000023  0.913883
    C   C2   0.309183  0.128061  0.000020  -0.206561
    C   C3   0.753524  0.974971  0.000023  0.761584
    C   C4   0.750657  0.882654  0.000012  -0.241768
    C   C5   0.744038  0.670266  0.851082  -0.000203
    C   C6   0.741330  0.583526  0.851083  -0.264754
    C   C7   0.741324  0.583527  0.148970  0.001202
    C   C8   0.744022  0.670267  0.148967  -0.266633
    C   C9   0.745386  0.713634  0.000018  0.165786
    C   C10  0.739981  0.540153  0.000023  0.163938
    C   C11  0.737045  0.446105  0.000025  -0.124639
    C   C12  0.748320  0.807689  0.000015  -0.124412
    C   C13  0.012410  0.122853  0.000028  0.916377
    C   C14  0.176184  0.125726  0.000020  -0.214336
    C   C15  0.731843  0.278816  0.000028  0.758307
    C   C16  0.734710  0.371133  0.000029  -0.241505
    N   N1   0.742675  0.126891  0.425704  0.118100
    N   N2   0.742704  0.126890  0.574351  0.120250
    H   H1   0.740230  0.548220  0.729804  0.173414
    C   C17  0.745545  0.717500  0.689542  -0.141968
    C   C18  0.748219  0.802745  0.721408  0.415021
    C   C19  0.749606  0.846279  0.572635  -0.255688
    H   H2   0.659136  0.709069  0.628257  0.047253
    H   H3   0.831106  0.697644  0.628299  0.043067
    H   H4   0.662667  0.822594  0.782626  -0.023928
    H   H5   0.834623  0.811201  0.782669  -0.019153
    H   H6   0.835167  0.826424  0.511392  0.028746
    H   H7   0.663196  0.837842  0.511361  0.026560
    H   H8   0.751435  0.904121  0.594236  0.024309
    C   C20  0.739937  0.536284  0.310509  -0.139705
    C   C21  0.737334  0.451035  0.278639  0.409944
    C   C22  0.736085  0.407490  0.427410  -0.257560
    H   H9   0.654422  0.556088  0.371839  0.042825
    H   H10  0.826395  0.544760  0.371708  0.046722
    H   H11  0.650885  0.442565  0.217466  -0.017617
    H   H12  0.822842  0.431207  0.217333  -0.021538
    H   H13  0.822542  0.415965  0.488609  0.027080
    H   H14  0.650569  0.427300  0.488729  0.029489
    H   H15  0.734332  0.349643  0.405807  0.024338
    H   H16  0.745111  0.705578  0.270256  0.173432
