# Generated by REPEAT Assigner based on pymatgen
data_DB5-hypotheticalMOF_1100_1_1_0_2_17_7
_audit_creation_date              2022-05-24
_audit_creation_method            REPEAT_Assigner
_cell_length_a                    11.169416
_cell_length_b                    17.077404
_cell_length_c                    17.077396
_cell_angle_alpha                 90.017244
_cell_angle_beta                  89.976500
_cell_angle_gamma                 89.989435
_cell_volume                      3257.421095
_symmetry_space_group_name_H-M    P1
_symmetry_Int_Tables_number       1
loop_
    _symmetry_equiv_pos_site_id
    _symmetry_equiv_pos_as_xyz
    1  x,y,z
loop_
    _atom_site_type_symbol
    _atom_site_label
    _atom_site_fract_x
    _atom_site_fract_y
    _atom_site_fract_z
    _atom_type_partial_charge
    Zn  Zn1  0.522210  0.799894  0.556126  1.291233
    Zn  Zn2  0.022210  0.299894  0.056126  1.291221
    Zn  Zn3  0.321495  0.799953  0.687378  1.257127
    Zn  Zn4  0.821495  0.299953  0.187378  1.257119
    Zn  Zn5  0.522165  0.931157  0.687378  1.265662
    Zn  Zn6  0.022165  0.431157  0.187378  1.265639
    Zn  Zn7  0.321569  0.931166  0.556155  1.289262
    Zn  Zn8  0.821569  0.431166  0.056155  1.289252
    O   O1   0.421860  0.865543  0.621759  -1.581425
    O   O2   0.921860  0.365543  0.121759  -1.581392
    O   O3   0.495573  0.690055  0.573525  -0.589315
    O   O4   0.995573  0.190055  0.073525  -0.589313
    O   O5   0.348065  0.817379  0.797225  -0.545186
    O   O6   0.848065  0.317379  0.297225  -0.545185
    O   O7   0.690121  0.913717  0.669954  -0.577550
    O   O8   0.190121  0.413717  0.169954  -0.577562
    O   O9   0.348108  0.690099  0.669955  -0.606694
    O   O10  0.848108  0.190099  0.169955  -0.606698
    O   O11  0.690154  0.817279  0.573524  -0.560473
    O   O12  0.190154  0.317279  0.073524  -0.560488
    O   O13  0.495496  0.913774  0.797225  -0.565909
    O   O14  0.995496  0.413774  0.297225  -0.565902
    O   O15  0.495568  0.041005  0.669983  -0.553825
    O   O16  0.995568  0.541005  0.169983  -0.553810
    O   O17  0.348235  0.913731  0.446304  -0.622530
    O   O18  0.848235  0.413731  0.946304  -0.622524
    O   O19  0.348191  0.041012  0.573574  -0.554033
    O   O20  0.848191  0.541012  0.073574  -0.554032
    O   O21  0.495644  0.817287  0.446282  -0.611579
    O   O22  0.995644  0.317287  0.946282  -0.611580
    O   O23  0.153555  0.817387  0.669984  -0.564311
    O   O24  0.653555  0.317387  0.169984  -0.564307
    O   O25  0.153610  0.913789  0.573574  -0.561948
    O   O26  0.653610  0.413789  0.073574  -0.561942
    C   C1   0.421882  0.069491  0.621781  0.404234
    C   C2   0.921882  0.569491  0.121781  0.404232
    C   C3   0.421862  0.156740  0.621771  0.274092
    C   C4   0.921862  0.656740  0.121771  0.274087
    C   C5   0.110035  0.865574  0.621765  0.597063
    C   C6   0.610035  0.365574  0.121765  0.597063
    C   C7   0.976635  0.865515  0.621741  -0.076310
    C   C8   0.476635  0.365515  0.121741  -0.076326
    C   C9   0.421953  0.865503  0.417015  0.537503
    C   C10  0.921953  0.365503  0.917015  0.537509
    C   C11  0.421992  0.865487  0.329765  0.335161
    C   C12  0.921992  0.365487  0.829765  0.335144
    C   C13  0.734902  0.865490  0.621736  0.597038
    C   C14  0.234902  0.365490  0.121736  0.597039
    C   C15  0.868302  0.865468  0.621726  -0.067994
    C   C16  0.368302  0.365468  0.121726  -0.067971
    C   C17  0.421837  0.660799  0.621737  0.540760
    C   C18  0.921837  0.160799  0.121737  0.540774
    C   C19  0.421828  0.573549  0.621727  0.105468
    C   C20  0.921828  0.073549  0.121727  0.105463
    C   C21  0.345007  0.197713  0.571652  -0.276179
    C   C22  0.845007  0.697713  0.071652  -0.276175
    C   C23  0.345005  0.279694  0.571639  -0.076311
    C   C24  0.845005  0.779694  0.071639  -0.076317
    C   C25  0.421852  0.320700  0.621751  -0.072536
    C   C26  0.921852  0.820700  0.121751  -0.072531
    C   C27  0.498715  0.279721  0.671873  0.196129
    C   C28  0.998715  0.779721  0.171873  0.196131
    C   C29  0.498723  0.197742  0.671881  -0.384638
    C   C30  0.998723  0.697742  0.171881  -0.384634
    C   C31  0.498691  0.450591  0.671854  -0.355412
    C   C32  0.998691  0.950591  0.171854  -0.355407
    C   C33  0.498682  0.532576  0.671847  0.082944
    C   C34  0.998682  0.032576  0.171847  0.082944
    C   C35  0.344973  0.532543  0.571612  -0.184839
    C   C36  0.844973  0.032543  0.071612  -0.184836
    C   C37  0.344981  0.450564  0.571620  -0.216168
    C   C38  0.844981  0.950564  0.071620  -0.216176
    C   C39  0.421843  0.409591  0.621743  0.164596
    C   C40  0.921843  0.909591  0.121743  0.164598
    C   C41  0.498769  0.915664  0.288775  -0.320061
    C   C42  0.998769  0.415664  0.788775  -0.320059
    C   C43  0.498796  0.915651  0.206794  -0.063263
    C   C44  0.998796  0.415651  0.706794  -0.063262
    C   C45  0.422052  0.865456  0.165805  -0.123866
    C   C46  0.922052  0.365456  0.665805  -0.123856
    C   C47  0.345267  0.815277  0.206801  0.256568
    C   C48  0.845267  0.315277  0.706801  0.256553
    C   C49  0.345235  0.815294  0.288780  -0.438824
    C   C50  0.845235  0.315294  0.788780  -0.438802
    C   C51  0.345342  0.815243  0.035931  -0.371319
    C   C52  0.845342  0.315243  0.535931  -0.371314
    C   C53  0.345376  0.815224  0.953946  0.161220
    C   C54  0.845376  0.315224  0.453946  0.161230
    C   C55  0.498904  0.915600  0.953945  -0.145485
    C   C56  0.998904  0.415600  0.453945  -0.145464
    C   C57  0.498871  0.915617  0.035924  -0.248564
    C   C58  0.998871  0.415617  0.535924  -0.248577
    C   C59  0.422088  0.865436  0.076914  0.207033
    C   C60  0.922088  0.365436  0.576914  0.207033
    C   C61  0.421854  0.865537  0.825707  0.449232
    C   C62  0.921854  0.365537  0.325707  0.449240
    C   C63  0.422152  0.865402  0.912956  0.034824
    C   C64  0.922152  0.365402  0.412956  0.034802
    H   H1   0.282425  0.164332  0.530847  0.156734
    H   H2   0.782425  0.664332  0.030847  0.156734
    C   C65  0.260855  0.760057  0.161719  -0.323697
    C   C66  0.760855  0.260057  0.661719  -0.323700
    H   H3   0.215120  0.730179  0.197874  0.109298
    H   H4   0.715120  0.230179  0.697874  0.109301
    H   H5   0.306781  0.725841  0.129734  0.095845
    H   H6   0.806781  0.225841  0.629734  0.095848
    H   H7   0.208572  0.790087  0.129744  0.120166
    H   H8   0.708572  0.290087  0.629744  0.120165
    C   C67  0.260954  0.760018  0.908855  -0.257670
    C   C68  0.760954  0.260018  0.408855  -0.257678
    H   H9   0.271983  0.767190  0.854162  0.168135
    H   H10  0.771983  0.267190  0.354162  0.168138
    H   H11  0.180312  0.771527  0.922296  0.037766
    H   H12  0.680312  0.271527  0.422296  0.037768
    H   H13  0.278504  0.707271  0.922283  0.050644
    H   H14  0.778504  0.207271  0.422283  0.050645
    H   H15  0.282827  0.774373  0.069302  0.219441
    H   H16  0.782827  0.274373  0.569302  0.219436
    H   H17  0.282724  0.774428  0.322153  0.166548
    H   H18  0.782724  0.274428  0.822153  0.166546
    H   H19  0.282421  0.313050  0.530827  0.101004
    H   H20  0.782421  0.813050  0.030827  0.101007
    H   H21  0.282399  0.417179  0.530819  0.145286
    H   H22  0.782399  0.917179  0.030819  0.145289
    H   H23  0.282393  0.565907  0.530798  0.123653
    H   H24  0.782393  0.065907  0.030798  0.123652
    C   C69  0.583224  0.577682  0.726960  -0.220487
    C   C70  0.083224  0.077682  0.226960  -0.220486
    H   H25  0.629015  0.541540  0.756804  0.063681
    H   H26  0.129015  0.041540  0.256804  0.063681
    H   H27  0.537384  0.609680  0.761212  0.086523
    H   H28  0.037384  0.109680  0.261212  0.086523
    H   H29  0.635450  0.609644  0.696859  0.076858
    H   H30  0.135450  0.109644  0.196859  0.076856
    H   H31  0.561291  0.417234  0.712662  0.245596
    H   H32  0.061291  0.917234  0.212662  0.245594
    H   H33  0.561425  0.956458  0.920567  0.134897
    H   H34  0.061425  0.456458  0.420567  0.134890
    H   H35  0.561312  0.164383  0.712689  0.172408
    H   H36  0.061312  0.664383  0.212689  0.172404
    C   C71  0.583250  0.324822  0.726994  -0.236147
    C   C72  0.083250  0.824822  0.226994  -0.236156
    H   H37  0.629031  0.288677  0.756839  0.078705
    H   H38  0.129031  0.788677  0.256839  0.078714
    H   H39  0.537405  0.356820  0.761244  0.068594
    H   H40  0.037405  0.856820  0.261244  0.068597
    H   H41  0.635486  0.356785  0.696900  0.082733
    H   H42  0.135486  0.856785  0.196900  0.082726
    H   H43  0.561270  0.956534  0.322143  0.149537
    H   H44  0.061270  0.456534  0.822143  0.149535
    H   H45  0.561311  0.956514  0.173424  0.114000
    H   H46  0.061311  0.456514  0.673424  0.113998
    H   H47  0.561369  0.956487  0.069296  0.139339
    H   H48  0.061369  0.456487  0.569296  0.139341
