# Generated by REPEAT Assigner based on pymatgen
data_DB5-hypotheticalMOF_8324_2_1_0_0_21_0
_audit_creation_date              2022-05-24
_audit_creation_method            REPEAT_Assigner
_cell_length_a                    8.497374
_cell_length_b                    8.497365
_cell_length_c                    18.215407
_cell_angle_alpha                 89.965465
_cell_angle_beta                  89.998459
_cell_angle_gamma                 90.037770
_cell_volume                      1315.248191
_symmetry_space_group_name_H-M    P1
_symmetry_Int_Tables_number       1
loop_
    _symmetry_equiv_pos_site_id
    _symmetry_equiv_pos_as_xyz
    1  x,y,z
loop_
    _atom_site_type_symbol
    _atom_site_label
    _atom_site_fract_x
    _atom_site_fract_y
    _atom_site_fract_z
    _atom_type_partial_charge
    Zn  Zn1  0.627641  0.107809  0.125300  1.280246
    Zn  Zn2  0.127641  0.607809  0.625300  1.280258
    Zn  Zn3  0.891585  0.371544  0.125228  1.276162
    Zn  Zn4  0.391585  0.871544  0.625228  1.276151
    Zn  Zn5  0.627814  0.371591  0.002201  1.254811
    Zn  Zn6  0.127814  0.871591  0.502201  1.254804
    Zn  Zn7  0.891375  0.107821  0.002250  1.255627
    Zn  Zn8  0.391375  0.607821  0.502250  1.255631
    O   O1   0.759604  0.239691  0.063745  -1.560696
    O   O2   0.259604  0.739691  0.563745  -1.560696
    O   O3   0.662669  0.142769  0.228275  -0.547067
    O   O4   0.162669  0.642769  0.728275  -0.547067
    O   O5   0.856755  0.592313  0.108858  -0.630363
    O   O6   0.356755  0.092313  0.608858  -0.630357
    O   O7   0.407029  0.336615  0.018541  -0.657985
    O   O8   0.907029  0.836615  0.518541  -0.657985
    O   O9   0.856587  0.336534  0.228222  -0.547106
    O   O10  0.356587  0.836534  0.728222  -0.547104
    O   O11  0.406902  0.142815  0.108981  -0.635351
    O   O12  0.906902  0.642815  0.608981  -0.635356
    O   O13  0.662965  0.592348  0.018471  -0.651926
    O   O14  0.162965  0.092348  0.518471  -0.651919
    O   O15  0.662761  0.336627  0.899224  -0.590400
    O   O16  0.162761  0.836627  0.399224  -0.590400
    O   O17  0.856230  0.887057  0.018623  -0.657906
    O   O18  0.356230  0.387057  0.518623  -0.657911
    O   O19  0.856398  0.142836  0.899259  -0.590783
    O   O20  0.356398  0.642836  0.399259  -0.590781
    O   O21  0.662465  0.887048  0.109028  -0.636191
    O   O22  0.162465  0.387048  0.609028  -0.636195
    O   O23  0.112319  0.336546  0.108905  -0.629915
    O   O24  0.612319  0.836546  0.608905  -0.629909
    O   O25  0.112165  0.142790  0.018554  -0.653089
    O   O26  0.612165  0.642790  0.518554  -0.653087
    C   C1   0.759577  0.239737  0.872539  0.628068
    C   C2   0.259577  0.739737  0.372539  0.628066
    C   C3   0.759603  0.239719  0.790740  -0.050115
    C   C4   0.259603  0.739719  0.290740  -0.050114
    C   C5   0.860589  0.138938  0.602584  0.030248
    C   C6   0.360589  0.638938  0.102584  0.030256
    C   C7   0.860593  0.138919  0.525725  -0.238797
    C   C8   0.360593  0.638919  0.025725  -0.238804
    C   C9   0.658648  0.340410  0.525658  -0.237021
    C   C10  0.158648  0.840410  0.025658  -0.237013
    C   C11  0.658636  0.340421  0.602516  0.028167
    C   C12  0.158636  0.840421  0.102516  0.028160
    C   C13  0.759615  0.239687  0.640976  0.196524
    C   C14  0.259615  0.739687  0.140976  0.196524
    C   C15  0.759632  0.239657  0.487260  0.183007
    C   C16  0.259632  0.739657  0.987260  0.183007
    C   C17  0.759637  0.239636  0.403927  -0.248340
    C   C18  0.259637  0.739636  0.903927  -0.248340
    C   C19  0.759609  0.239705  0.724315  -0.183303
    C   C20  0.259609  0.739705  0.224315  -0.183304
    C   C21  0.169484  0.239669  0.063736  0.653062
    C   C22  0.669484  0.739669  0.563736  0.653069
    C   C23  0.348128  0.239694  0.063755  0.660091
    C   C24  0.848128  0.739694  0.563755  0.660083
    C   C25  0.759776  0.649571  0.063692  0.653153
    C   C26  0.259776  0.149571  0.563692  0.653160
    C   C27  0.759452  0.828215  0.063797  0.659978
    C   C28  0.259452  0.328215  0.563797  0.659969
    C   C29  0.759632  0.239645  0.255698  0.547695
    C   C30  0.259632  0.739645  0.755698  0.547693
    C   C31  0.759644  0.239625  0.337497  0.016557
    C   C32  0.259644  0.739625  0.837497  0.016557
    H   H1   0.576436  0.422426  0.494334  0.278992
    H   H2   0.076436  0.922426  0.994334  0.278987
    H   H3   0.942814  0.056877  0.494469  0.279686
    H   H4   0.442814  0.556877  0.994469  0.279690
    H   H5   0.576401  0.422463  0.633776  0.032613
    H   H6   0.076401  0.922463  0.133776  0.032615
    H   H7   0.942809  0.056911  0.633896  0.031667
    H   H8   0.442809  0.556911  0.133896  0.031666
