data_DB5-hypotheticalMOF_15053_0_0_0_16_13_5_repeat
_audit_creation_date              2024-02-23
_audit_creation_method            'Materials Studio'
_symmetry_space_group_name_H-M    'P1'
_symmetry_Int_Tables_number       1
_symmetry_cell_setting            triclinic
loop_
_symmetry_equiv_pos_as_xyz
  x,y,z
_cell_length_a                    14.9086
_cell_length_b                    16.9595
_cell_length_c                    14.9083
_cell_angle_alpha                 93.2697
_cell_angle_beta                  90.1751
_cell_angle_gamma                 86.7164
loop_
_atom_site_label
_atom_site_type_symbol
_atom_site_fract_x
_atom_site_fract_y
_atom_site_fract_z
_atom_site_U_iso_or_equiv
_atom_site_adp_type
_atom_site_occupancy
Zn1    Zn    0.34530   0.58750   0.41240   0.00000  Uiso   1.00
Zn2    Zn    0.35388   0.46248   0.56275   0.00000  Uiso   1.00
Zn3    Zn    0.20361   0.60269   0.57140   0.00000  Uiso   1.00
Zn4    Zn    0.19491   0.46342   0.42110   0.00000  Uiso   1.00
O1     O     0.27442   0.52902   0.49191   0.00000  Uiso   1.00
O2     O     0.47226   0.56417   0.42508   0.00000  Uiso   1.00
O3     O     0.34118   0.48704   0.68972   0.00000  Uiso   1.00
O4     O     0.22246   0.71128   0.55029   0.00000  Uiso   1.00
O5     O     0.47857   0.47232   0.53554   0.00000  Uiso   1.00
O6     O     0.32656   0.70013   0.43347   0.00000  Uiso   1.00
O7     O     0.23078   0.59005   0.69608   0.00000  Uiso   1.00
O8     O     0.07663   0.59096   0.55872   0.00000  Uiso   1.00
O9     O     0.20762   0.47392   0.29412   0.00000  Uiso   1.00
O10    O     0.07024   0.48864   0.44830   0.00000  Uiso   1.00
O11    O     0.31811   0.56508   0.28773   0.00000  Uiso   1.00
O12    O     0.33274   0.35200   0.54398   0.00000  Uiso   1.00
O13    O     0.21594   0.35269   0.43991   0.00000  Uiso   1.00
C1     C     0.04081   0.54155   0.50539   0.00000  Uiso   1.00
C2     C     0.94087   0.54689   0.51114   0.00000  Uiso   1.00
C3     C     0.74646   0.45022   0.40711   0.00000  Uiso   1.00
C4     C     0.65255   0.45524   0.41250   0.00000  Uiso   1.00
C5     C     0.65915   0.56193   0.52732   0.00000  Uiso   1.00
C6     C     0.75305   0.55692   0.52193   0.00000  Uiso   1.00
C7     C     0.79670   0.50106   0.46182   0.00000  Uiso   1.00
C8     C     0.89061   0.49604   0.45643   0.00000  Uiso   1.00
C9     C     0.89720   0.60274   0.57124   0.00000  Uiso   1.00
C10    C     0.80330   0.60775   0.57664   0.00000  Uiso   1.00
C11    C     0.27435   0.32366   0.49193   0.00000  Uiso   1.00
C12    C     0.27440   0.23580   0.49190   0.00000  Uiso   1.00
C13    C     0.21369   0.86465   0.43772   0.00000  Uiso   1.00
C14    C     0.33540   0.86398   0.54599   0.00000  Uiso   1.00
C15    C     0.33537   0.94653   0.54600   0.00000  Uiso   1.00
C16    C     0.27450   0.98814   0.49187   0.00000  Uiso   1.00
C17    C     0.21366   0.94720   0.43773   0.00000  Uiso   1.00
C18    C     0.39620   0.98747   0.60015   0.00000  Uiso   1.00
C19    C     0.39617   0.07002   0.60016   0.00000  Uiso   1.00
C20    C     0.33531   0.11164   0.54603   0.00000  Uiso   1.00
C21    C     0.27446   0.07070   0.49188   0.00000  Uiso   1.00
C22    C     0.21359   0.11231   0.43776   0.00000  Uiso   1.00
C23    C     0.15275   0.07137   0.38361   0.00000  Uiso   1.00
C24    C     0.15279   0.98882   0.38360   0.00000  Uiso   1.00
C25    C     0.33527   0.19419   0.54603   0.00000  Uiso   1.00
C26    C     0.21356   0.19486   0.43777   0.00000  Uiso   1.00
C27    C     0.50895   0.51645   0.47838   0.00000  Uiso   1.00
C28    C     0.60889   0.51109   0.47261   0.00000  Uiso   1.00
C29    C     0.26094   0.51791   0.25739   0.00000  Uiso   1.00
C30    C     0.25519   0.51318   0.15745   0.00000  Uiso   1.00
C31    C     0.27452   0.73518   0.49187   0.00000  Uiso   1.00
C32    C     0.27456   0.82304   0.49185   0.00000  Uiso   1.00
C33    C     0.35945   0.59923   0.96299   0.00000  Uiso   1.00
C34    C     0.35405   0.59478   0.86908   0.00000  Uiso   1.00
C35    C     0.23900   0.49984   0.87573   0.00000  Uiso   1.00
C36    C     0.24440   0.50429   0.96964   0.00000  Uiso   1.00
C37    C     0.30462   0.55398   0.01326   0.00000  Uiso   1.00
C38    C     0.31002   0.55842   0.10717   0.00000  Uiso   1.00
C39    C     0.19497   0.46349   0.11381   0.00000  Uiso   1.00
C40    C     0.18957   0.45904   0.01991   0.00000  Uiso   1.00
C41    C     0.28791   0.54014   0.72552   0.00000  Uiso   1.00
C42    C     0.29383   0.54509   0.82545   0.00000  Uiso   1.00
H1     H     0.78200   0.40474   0.35817   0.00000  Uiso   1.00
H2     H     0.38496   0.83010   0.59007   0.00000  Uiso   1.00
H3     H     0.39869   0.63163   0.82815   0.00000  Uiso   1.00
N1     N     0.46180   0.11418   0.65855   0.00000  Uiso   1.00
H4     H     0.50036   0.07529   0.69284   0.00000  Uiso   1.00
H5     H     0.50126   0.14449   0.61951   0.00000  Uiso   1.00
N2     N     0.12460   0.40547   0.97286   0.00000  Uiso   1.00
H6     H     0.12949   0.40952   0.90574   0.00000  Uiso   1.00
H7     H     0.13950   0.34904   0.98846   0.00000  Uiso   1.00
N3     N     0.61204   0.62216   0.59215   0.00000  Uiso   1.00
H8     H     0.62757   0.67708   0.57716   0.00000  Uiso   1.00
H9     H     0.54494   0.61753   0.58722   0.00000  Uiso   1.00
N4     N     0.13584   0.41468   0.16804   0.00000  Uiso   1.00
H10    H     0.14839   0.42503   0.23414   0.00000  Uiso   1.00
H11    H     0.07068   0.42964   0.15533   0.00000  Uiso   1.00
H12    H     0.92615   0.45056   0.40748   0.00000  Uiso   1.00
H13    H     0.76774   0.65323   0.62558   0.00000  Uiso   1.00
H14    H     0.38480   0.22752   0.59013   0.00000  Uiso   1.00
H15    H     0.93813   0.64413   0.61579   0.00000  Uiso   1.00
N5     N     0.14807   0.82050   0.37933   0.00000  Uiso   1.00
H16    H     0.15828   0.83111   0.31427   0.00000  Uiso   1.00
H17    H     0.15735   0.76191   0.38760   0.00000  Uiso   1.00
N6     N     0.59836   0.40040   0.35349   0.00000  Uiso   1.00
H18    H     0.64026   0.36426   0.31460   0.00000  Uiso   1.00
H19    H     0.56149   0.36769   0.39241   0.00000  Uiso   1.00
N7     N     0.46185   0.94258   0.65853   0.00000  Uiso   1.00
H20    H     0.52527   0.95288   0.64081   0.00000  Uiso   1.00
H21    H     0.45154   0.96072   0.72357   0.00000  Uiso   1.00
H22    H     0.35906   0.59889   0.14268   0.00000  Uiso   1.00
N8     N     0.42442   0.65280   0.01004   0.00000  Uiso   1.00
H23    H     0.41953   0.64875   0.07716   0.00000  Uiso   1.00
H24    H     0.48768   0.63626   0.98991   0.00000  Uiso   1.00
N9     N     0.14791   0.23974   0.37938   0.00000  Uiso   1.00
H25    H     0.10937   0.20128   0.34508   0.00000  Uiso   1.00
H26    H     0.10841   0.27792   0.41842   0.00000  Uiso   1.00
N10    N     0.08710   0.11626   0.32523   0.00000  Uiso   1.00
H27    H     0.09733   0.09814   0.26016   0.00000  Uiso   1.00
H28    H     0.02371   0.10594   0.34302   0.00000  Uiso   1.00
N11    N     0.08717   0.94466   0.32520   0.00000  Uiso   1.00
H29    H     0.09643   0.88605   0.33342   0.00000  Uiso   1.00
H30    H     0.02377   0.96315   0.34296   0.00000  Uiso   1.00
N12    N     0.17401   0.44628   0.82868   0.00000  Uiso   1.00
H31    H     0.17890   0.45035   0.76156   0.00000  Uiso   1.00
H32    H     0.18889   0.38985   0.84427   0.00000  Uiso   1.00
