# Generated by REPEAT Assigner based on pymatgen
data_DB5-hypotheticalMOF_36781_0_0_2_16_11_2
_audit_creation_date              2022-05-24
_audit_creation_method            REPEAT_Assigner
_cell_length_a                    11.026607
_cell_length_b                    14.853559
_cell_length_c                    9.482900
_cell_angle_alpha                 99.349447
_cell_angle_beta                  78.636152
_cell_angle_gamma                 96.108735
_cell_volume                      1498.023614
_symmetry_space_group_name_H-M    P1
_symmetry_Int_Tables_number       1
loop_
    _symmetry_equiv_pos_site_id
    _symmetry_equiv_pos_as_xyz
    1  x,y,z
loop_
    _atom_site_type_symbol
    _atom_site_label
    _atom_site_fract_x
    _atom_site_fract_y
    _atom_site_fract_z
    _atom_type_partial_charge
    O   O1    0.629678  0.366574  0.879118  -0.736971
    O   O2    0.276302  0.323574  0.879114  -0.804540
    O   O3    0.462434  0.215368  0.879118  -0.515996
    O   O4    0.443545  0.474780  0.879115  -0.439029
    O   O5    0.424626  0.237460  0.120910  -0.570742
    O   O6    0.238494  0.345666  0.120906  -0.735951
    O   O7    0.591870  0.388666  0.120910  -0.724183
    Cu  Cu1   0.411730  0.369183  0.142985  0.853844
    Cu  Cu2   0.456442  0.343057  0.857039  0.879785
    O   O8    0.405738  0.496872  0.120906  -0.519460
    C   C1    0.212174  0.326687  0.000010  1.081873
    C   C2    0.077421  0.303039  0.000008  -0.384230
    C   C3    0.003723  0.368334  0.000007  0.120354
    C   C4    0.864449  0.343895  0.000005  -0.223331
    C   C5    0.442677  0.192687  0.000011  0.697526
    C   C6    0.440119  0.092189  0.000003  -0.009485
    C   C7    0.449871  0.655220  0.868202  -0.097565
    C   C8    0.408651  0.679310  0.131813  -0.293142
    C   C9    0.411066  0.773733  0.131814  0.411218
    C   C10   0.432881  0.808904  0.000007  -0.146958
    C   C11   0.452282  0.749651  0.868199  0.086412
    C   C12   0.391653  0.832992  0.263619  -0.200908
    C   C13   0.394065  0.927422  0.263626  -0.077757
    C   C14   0.415890  0.962594  0.131818  0.128542
    C   C15   0.435293  0.903335  0.000004  -0.081779
    C   C16   0.457108  0.938505  0.868198  0.340736
    C   C17   0.476520  0.879248  0.736383  -0.198133
    C   C18   0.474107  0.784823  0.736391  0.007389
    C   C19   0.418303  0.057019  0.131810  -0.212717
    C   C20   0.459520  0.032936  0.868195  -0.169755
    C   C21   0.655998  0.385552  0.000011  0.989060
    C   C22   0.790753  0.409199  0.000003  -0.214327
    C   C23   0.425496  0.519553  0.000010  0.535023
    C   C24   0.428055  0.620049  0.000009  0.168226
    N   N1    0.380291  0.387560  0.344105  -0.012360
    N   N2    0.487890  0.324674  0.655919  -0.093618
    C   C25   0.447160  0.348471  0.416305  0.019945
    C   C26   0.421011  0.363769  0.583722  0.110729
    H   H1    0.037414  0.229041  0.999972  0.155622
    Cl  Cl1   0.302720  0.432922  0.679629  0.191595
    Cl  Cl2   0.262004  0.456710  0.440017  -0.028507
    Cl  Cl3   0.381207  0.635094  0.297503  0.097242
    H   H2    0.402471  0.105260  0.239131  0.106005
    Cl  Cl4   0.565166  0.279069  0.320394  0.173311
    H   H3    0.824447  0.269892  0.999969  0.170066
    Cl  Cl5   0.065489  0.482580  0.000009  -0.040754
    H   H4    0.830757  0.483200  0.000012  0.089227
    Cl  Cl6   0.486956  0.077142  0.702484  0.041221
    Cl  Cl7   0.503949  0.923474  0.570690  -0.013905
    H   H5    0.489910  0.736568  0.629074  0.051593
    Cl  Cl8   0.606436  0.255749  0.560017  -0.003090
    Cl  Cl9   0.474286  0.580730  0.702500  -0.056812
    H   H6    0.378263  0.975662  0.370958  0.115480
    Cl  Cl10  0.364202  0.788772  0.429307  -0.016016
