# Generated by REPEAT Assigner based on pymatgen
data_DB5-hypotheticalMOF_7765_2_1_0_11_11_0
_audit_creation_date              2022-05-24
_audit_creation_method            REPEAT_Assigner
_cell_length_a                    13.033286
_cell_length_b                    13.032721
_cell_length_c                    13.032268
_cell_angle_alpha                 103.289627
_cell_angle_beta                  105.163409
_cell_angle_gamma                 89.137287
_cell_volume                      2076.967723
_symmetry_space_group_name_H-M    P1
_symmetry_Int_Tables_number       1
loop_
    _symmetry_equiv_pos_site_id
    _symmetry_equiv_pos_as_xyz
    1  x,y,z
loop_
    _atom_site_type_symbol
    _atom_site_label
    _atom_site_fract_x
    _atom_site_fract_y
    _atom_site_fract_z
    _atom_type_partial_charge
    Zn  Zn1  0.451070  0.337631  0.509748  1.282641
    Zn  Zn2  0.951070  0.837631  0.009748  1.282623
    Zn  Zn3  0.450956  0.182559  0.664787  1.280815
    Zn  Zn4  0.950956  0.682559  0.164787  1.280786
    Zn  Zn5  0.301741  0.376940  0.670456  1.278005
    Zn  Zn6  0.801741  0.876940  0.170456  1.277986
    Zn  Zn7  0.250876  0.182600  0.464639  1.277799
    Zn  Zn8  0.750876  0.682600  0.964639  1.277771
    O   O1   0.363661  0.269932  0.577407  -1.587356
    O   O2   0.863661  0.769932  0.077407  -1.587308
    O   O3   0.597284  0.300592  0.546820  -0.587348
    O   O4   0.097284  0.800592  0.046820  -0.587337
    O   O5   0.452402  0.224778  0.816559  -0.600232
    O   O6   0.952402  0.724778  0.316559  -0.600231
    O   O7   0.342885  0.517955  0.670388  -0.589597
    O   O8   0.842885  0.017955  0.170388  -0.589590
    O   O9   0.597200  0.186662  0.660726  -0.588160
    O   O10  0.097200  0.686662  0.160726  -0.588135
    O   O11  0.452596  0.489075  0.552317  -0.597722
    O   O12  0.952596  0.989075  0.052317  -0.597724
    O   O13  0.342774  0.367588  0.820724  -0.581429
    O   O14  0.842774  0.867588  0.320724  -0.581432
    O   O15  0.148765  0.367628  0.626648  -0.584993
    O   O16  0.648765  0.867628  0.126648  -0.584978
    O   O17  0.256193  0.186731  0.319603  -0.575630
    O   O18  0.756193  0.686731  0.819603  -0.575628
    O   O19  0.111395  0.224848  0.475436  -0.585042
    O   O20  0.611395  0.724848  0.975436  -0.585022
    O   O21  0.403275  0.300632  0.352744  -0.589596
    O   O22  0.903275  0.800632  0.852744  -0.589593
    O   O23  0.403080  0.036335  0.616986  -0.589969
    O   O24  0.903080  0.536335  0.116986  -0.589961
    O   O25  0.256083  0.036365  0.469938  -0.595135
    O   O26  0.756083  0.536365  0.969938  -0.595129
    C   C1   0.092164  0.300507  0.546761  0.554677
    C   C2   0.592164  0.800507  0.046761  0.554646
    C   C3   0.976010  0.313559  0.533622  -0.030449
    C   C4   0.476010  0.813559  0.033622  -0.030447
    C   C5   0.924212  0.263117  0.584238  -0.191660
    C   C6   0.424212  0.763117  0.084238  -0.191651
    C   C7   0.804160  0.276606  0.570659  -0.126292
    C   C8   0.304160  0.776606  0.070659  -0.126329
    C   C9   0.324075  0.998428  0.537932  0.540742
    C   C10  0.824075  0.498428  0.037932  0.540720
    C   C11  0.307230  0.882263  0.521019  -0.108244
    C   C12  0.807230  0.382263  0.021019  -0.108218
    C   C13  0.372501  0.830481  0.586192  -0.139663
    C   C14  0.872501  0.330481  0.086192  -0.139670
    C   C15  0.355093  0.710418  0.568713  -0.208153
    C   C16  0.855093  0.210418  0.068713  -0.208157
    C   C17  0.636217  0.239237  0.608172  0.536756
    C   C18  0.136217  0.739237  0.108172  0.536718
    C   C19  0.752365  0.226157  0.621283  -0.097069
    C   C20  0.252365  0.726157  0.121283  -0.097004
    C   C21  0.324073  0.239301  0.295921  0.520715
    C   C22  0.824073  0.739301  0.795921  0.520723
    C   C23  0.307203  0.226248  0.175969  -0.104396
    C   C24  0.807203  0.726248  0.675969  -0.104396
    C   C25  0.403427  0.542491  0.617017  0.578023
    C   C26  0.903427  0.042491  0.117017  0.578025
    C   C27  0.420373  0.658639  0.633896  -0.040709
    C   C28  0.920373  0.158639  0.133896  -0.040704
    C   C29  0.372455  0.276784  0.138887  -0.121709
    C   C30  0.872455  0.776784  0.638887  -0.121721
    C   C31  0.355020  0.263294  0.014910  -0.205584
    C   C32  0.855020  0.763294  0.514910  -0.205574
    C   C33  0.403166  0.300513  0.857816  0.574750
    C   C34  0.903166  0.800513  0.357816  0.574755
    C   C35  0.420281  0.313838  0.977834  -0.032365
    C   C36  0.920281  0.813838  0.477834  -0.032377
    H   H1   0.931477  0.366727  0.480230  0.097757
    H   H2   0.431477  0.866727  0.980230  0.097758
    H   H3   0.796889  0.172973  0.674665  0.098670
    H   H4   0.296889  0.672973  0.174665  0.098636
    H   H5   0.489053  0.367101  0.037867  0.096464
    H   H6   0.989053  0.867101  0.537867  0.096469
    H   H7   0.968743  0.209942  0.637622  0.160151
    H   H8   0.468743  0.709942  0.137622  0.160154
    H   H9   0.238426  0.173003  0.115932  0.107369
    H   H10  0.738426  0.673003  0.615932  0.107368
    H   H11  0.441274  0.875031  0.654927  0.169508
    H   H12  0.941274  0.375031  0.154927  0.169511
    H   H13  0.489150  0.703186  0.702635  0.118356
    H   H14  0.989150  0.203186  0.202635  0.118355
    H   H15  0.286238  0.210046  0.954876  0.161769
    H   H16  0.786238  0.710046  0.454876  0.161772
    H   H17  0.238465  0.837709  0.452278  0.122805
    H   H18  0.738465  0.337709  0.952278  0.122803
    H   H19  0.759631  0.329777  0.517263  0.167587
    H   H20  0.259631  0.829777  0.017263  0.167595
    H   H21  0.441223  0.330041  0.198925  0.169514
    H   H22  0.941223  0.830041  0.698925  0.169513
    H   H23  0.286323  0.665868  0.499967  0.163632
    H   H24  0.786323  0.165868  0.999967  0.163625
