# Generated by REPEAT Assigner based on pymatgen
data_DB5-hypotheticalMOF_23032_0_0_1_13_7_10
_audit_creation_date              2022-05-24
_audit_creation_method            REPEAT_Assigner
_cell_length_a                    10.654556
_cell_length_b                    12.837942
_cell_length_c                    9.730223
_cell_angle_alpha                 89.998888
_cell_angle_beta                  89.999363
_cell_angle_gamma                 89.658175
_cell_volume                      1330.901242
_symmetry_space_group_name_H-M    P1
_symmetry_Int_Tables_number       1
loop_
    _symmetry_equiv_pos_site_id
    _symmetry_equiv_pos_as_xyz
    1  x,y,z
loop_
    _atom_site_type_symbol
    _atom_site_label
    _atom_site_fract_x
    _atom_site_fract_y
    _atom_site_fract_z
    _atom_type_partial_charge
    O   O1   0.683734  0.145749  0.885697  -0.542984
    O   O2   0.319771  0.159626  0.885697  -0.568533
    O   O3   0.493682  0.001726  0.885705  -0.690722
    O   O4   0.509823  0.303648  0.885688  -0.721253
    O   O5   0.493680  0.001730  0.114285  -0.602548
    O   O6   0.319769  0.159630  0.114277  -0.458259
    O   O7   0.683732  0.145753  0.114277  -0.586547
    Zn  Zn1  0.501751  0.152692  0.150569  0.885097
    Zn  Zn2  0.501753  0.152687  0.849405  0.973053
    O   O8   0.509821  0.303652  0.114268  -0.700574
    C   C1   0.272861  0.158608  0.999987  0.602615
    C   C2   0.133085  0.155555  0.999987  -0.349149
    C   C3   0.936087  0.151257  0.875377  -0.325923
    C   C4   0.067422  0.154120  0.875383  0.359963
    C   C5   0.067407  0.154118  0.124594  0.156842
    C   C6   0.936075  0.151248  0.124586  -0.344673
    C   C7   0.936096  0.151263  0.731498  0.457378
    C   C8   0.067431  0.154125  0.731503  -0.507838
    C   C9   0.488229  0.963069  0.999995  0.716233
    C   C10  0.471966  0.847874  0.999992  -0.016637
    C   C11  0.667470  0.608325  0.999963  0.009685
    C   C12  0.652196  0.500089  0.999961  -0.316409
    C   C13  0.426145  0.523164  0.999976  -0.343300
    C   C14  0.441419  0.631400  0.999978  0.297369
    C   C15  0.562086  0.673976  0.999974  -0.006148
    C   C16  0.577359  0.782214  0.999986  -0.233345
    C   C17  0.351308  0.805288  0.999991  0.054892
    C   C18  0.336034  0.697052  0.999988  -0.382285
    C   C19  0.730643  0.146771  0.999984  0.671957
    C   C20  0.870418  0.149824  0.999974  -0.009158
    C   C21  0.515275  0.342310  0.999976  0.908498
    C   C22  0.531537  0.457505  0.999969  0.053981
    N   N1   0.501758  0.152695  0.356105  -0.177170
    N   N2   0.501754  0.152676  0.643868  -0.131946
    C   C23  0.578790  0.082801  0.428035  0.098595
    C   C24  0.578786  0.082788  0.571918  0.118206
    C   C25  0.424713  0.222573  0.571929  -0.138942
    C   C26  0.424712  0.222580  0.428048  0.025703
    C   C27  0.667747  0.002100  0.428030  -0.043202
    C   C28  0.667742  0.002088  0.571913  0.027271
    H   H1   0.111074  0.080232  0.686862  0.069106
    C   C29  0.372363  0.401622  0.383768  -0.170195
    C   C30  0.340029  0.299405  0.348985  0.420032
    H   H2   0.320084  0.449052  0.334951  0.030548
    H   H3   0.361337  0.411609  0.479744  -0.008301
    H   H4   0.457596  0.413532  0.360176  0.036090
    H   H5   0.254798  0.287493  0.372586  -0.061958
    H   H6   0.351045  0.289414  0.252988  -0.011399
    C   C31  0.602347  0.829158  0.487230  -0.154084
    C   C32  0.627043  0.894454  0.375300  0.283290
    H   H7   0.577210  0.762707  0.454673  0.035963
    H   H8   0.676000  0.821831  0.541454  0.036285
    H   H9   0.537066  0.858647  0.541460  0.032198
    H   H10  0.692331  0.864969  0.321075  -0.070801
    H   H11  0.553381  0.901777  0.321054  -0.048246
    C   C33  0.815788  0.716651  0.117476  0.162625
    C   C34  0.800104  0.655128  0.999969  0.100604
    H   H12  0.897675  0.745537  0.117481  -0.071836
    H   H13  0.755220  0.771239  0.117465  -0.032705
    H   H14  0.805125  0.674894  0.197176  -0.035141
    H   H15  0.810758  0.696888  0.920268  -0.024487
    H   H16  0.860689  0.600533  0.999968  -0.008430
    H   H17  0.100259  0.227386  0.676271  0.100254
    C   C35  0.104367  0.244023  0.337014  -0.097907
    C   C36  0.139577  0.155688  0.261566  0.217797
    H   H18  0.148916  0.244987  0.421580  0.028168
    H   H19  0.123558  0.304877  0.285820  0.012582
    H   H20  0.016750  0.242102  0.354828  -0.002482
    H   H21  0.227194  0.157613  0.243743  -0.098221
    H   H22  0.120396  0.094819  0.312770  -0.081435
    H   H23  0.882614  0.150060  0.226045  0.140581
    H   H24  0.361984  0.279470  0.630520  0.190312
    H   H25  0.761688  0.027371  0.383402  0.015408
    H   H26  0.629006  0.926728  0.616532  0.040607
    H   H27  0.903279  0.078008  0.676253  0.042205
    H   H28  0.327903  0.488479  0.999964  0.119468
    C   C37  0.881251  0.040656  0.512712  -0.102949
    C   C38  0.800643  0.026082  0.624642  0.229272
    H   H29  0.963292  0.055473  0.545268  0.025443
    H   H30  0.883455  0.979158  0.458475  0.027777
    H   H31  0.851681  0.097234  0.458495  0.101543
    H   H32  0.830207  0.969499  0.678854  -0.021939
    H   H33  0.798443  0.087587  0.678901  -0.193773
    C   C39  0.972419  0.319439  0.631649  -0.079892
    C   C40  0.877168  0.251006  0.671225  0.204674
    H   H34  0.936035  0.381013  0.594437  -0.000126
    H   H35  0.021929  0.336750  0.709450  0.006945
    H   H36  0.023877  0.286965  0.564199  0.014317
    H   H37  0.825715  0.283476  0.738683  -0.035178
    H   H38  0.827637  0.233695  0.593415  -0.093347
    H   H39  0.675611  0.816878  0.999988  0.122760
    H   H40  0.738012  0.446639  0.999948  0.138019
    H   H41  0.237790  0.662371  0.999986  0.154596
    C   C41  0.274341  0.981450  0.999992  -0.120540
    C   C42  0.235458  0.877455  0.999992  -0.026429
    H   H42  0.202821  0.026001  0.999987  0.059448
    H   H43  0.323274  0.994439  0.079698  0.072945
    H   H44  0.323283  0.994441  0.920276  0.112140
    H   H45  0.186524  0.864463  0.079714  0.029701
    H   H46  0.186505  0.864461  0.920278  0.018305
