# Generated by REPEAT Assigner based on pymatgen
data_DB5-hypotheticalMOF_35016_0_0_2_5_2_0
_audit_creation_date              2022-05-24
_audit_creation_method            REPEAT_Assigner
_cell_length_a                    9.130307
_cell_length_b                    9.065218
_cell_length_c                    9.065218
_cell_angle_alpha                 85.015885
_cell_angle_beta                  89.998522
_cell_angle_gamma                 89.998400
_cell_volume                      747.474926
_symmetry_space_group_name_H-M    P1
_symmetry_Int_Tables_number       1
loop_
    _symmetry_equiv_pos_site_id
    _symmetry_equiv_pos_as_xyz
    1  x,y,z
loop_
    _atom_site_type_symbol
    _atom_site_label
    _atom_site_fract_x
    _atom_site_fract_y
    _atom_site_fract_z
    _atom_type_partial_charge
    O   O1   0.121797  0.039605  0.783646  -0.560058
    O   O2   0.121798  0.468889  0.765899  -0.561927
    O   O3   0.121794  0.245374  0.989415  -0.559321
    O   O4   0.121800  0.263120  0.560130  -0.562246
    O   O5   0.878195  0.245381  0.989417  -0.559467
    O   O6   0.878199  0.468897  0.765901  -0.561973
    O   O7   0.878198  0.039612  0.783648  -0.560213
    Cu  Cu1  0.855956  0.254255  0.774775  0.730781
    Cu  Cu2  0.144040  0.254246  0.774772  0.730083
    O   O8   0.878201  0.263128  0.560132  -0.562280
    C   C1   0.999999  0.523880  0.767606  0.871474
    C   C2   0.000000  0.687723  0.772706  -0.220575
    C   C3   0.999997  0.247083  0.044403  0.859328
    C   C4   0.000004  0.252183  0.208245  -0.210111
    N   N1   0.653333  0.254250  0.774778  -0.177810
    C   C5   0.653340  0.056245  0.972642  -0.131569
    C   C6   0.576676  0.957233  0.071570  -0.109262
    C   C7   0.423343  0.957218  0.071571  -0.109143
    C   C8   0.346669  0.056229  0.972636  -0.131761
    C   C9   0.423333  0.155242  0.873708  0.168965
    C   C10  0.576670  0.155243  0.873715  0.169420
    C   C11  0.423326  0.353252  0.675853  0.165778
    C   C12  0.576660  0.353262  0.675843  0.166188
    C   C13  0.346653  0.452263  0.576919  -0.124284
    C   C14  0.423316  0.551271  0.477981  -0.112044
    C   C15  0.576659  0.551280  0.477983  -0.111961
    C   C16  0.653323  0.452274  0.576915  -0.124245
    N   N2   0.346663  0.254239  0.774781  -0.177143
    C   C17  0.000000  0.984622  0.781941  0.867807
    C   C18  0.000009  0.820779  0.776842  -0.221232
    C   C19  0.000002  0.261418  0.505145  0.875821
    C   C20  0.000004  0.256319  0.341302  -0.230024
    H   H1   0.778192  0.056235  0.972639  0.152374
    H   H2   0.639070  0.631914  0.397430  0.118102
    H   H3   0.360923  0.876599  0.152131  0.117198
    H   H4   0.639117  0.876621  0.152124  0.117158
    H   H5   0.221817  0.056224  0.972655  0.152410
    H   H6   0.221800  0.452253  0.576930  0.148882
    H   H7   0.778175  0.452268  0.576920  0.148780
    H   H8   0.360879  0.631885  0.397442  0.118098
