# Generated by REPEAT Assigner based on pymatgen
data_DB11-pMOF_35
_audit_creation_date              2022-05-24
_audit_creation_method            REPEAT_Assigner
_cell_length_a                    10.654600
_cell_length_b                    19.188900
_cell_length_c                    9.130310
_cell_angle_alpha                 89.996000
_cell_angle_beta                  90.005100
_cell_angle_gamma                 83.812900
_cell_volume                      1855.819351
_symmetry_space_group_name_H-M    P1
_symmetry_Int_Tables_number       1
loop_
    _symmetry_equiv_pos_site_id
    _symmetry_equiv_pos_as_xyz
    1  x,y,z
loop_
    _atom_site_type_symbol
    _atom_site_label
    _atom_site_fract_x
    _atom_site_fract_y
    _atom_site_fract_z
    _atom_type_partial_charge
    Cu  Cu1  0.133320  0.266650  0.939290  0.789544
    Cu  Cu2  0.133340  0.266650  0.227380  0.796087
    C   C1   0.698830  0.267610  0.216130  -0.117984
    C   C2   0.567850  0.265680  0.216120  -0.120597
    C   C3   0.567840  0.265690  0.950530  -0.120350
    C   C4   0.698820  0.267620  0.950540  -0.116800
    H   H1   0.752150  0.268390  0.324260  0.106483
    H   H2   0.514540  0.264910  0.324250  0.107089
    H   H3   0.514500  0.264910  0.842410  0.106427
    H   H4   0.752120  0.268400  0.842400  0.106518
    C   C5   0.903710  0.270630  0.083340  0.633745
    C   C6   0.764310  0.268580  0.083340  -0.011472
    O   O1   0.950470  0.271320  0.955810  -0.535354
    O   O2   0.950500  0.271320  0.210870  -0.534389
    C   C7   0.362950  0.262670  0.083330  0.628404
    C   C8   0.502350  0.264720  0.083330  -0.004047
    O   O3   0.316190  0.261970  0.210860  -0.534428
    O   O4   0.316160  0.261980  0.955800  -0.533617
    C   C9   0.140210  0.025110  0.216140  -0.086852
    C   C10  0.138270  0.952270  0.216140  -0.034757
    C   C11  0.137300  0.915860  0.083350  -0.397211
    C   C12  0.138230  0.952290  0.950550  -0.032945
    C   C13  0.140160  0.025120  0.950560  -0.088780
    N   N1   0.205720  0.796650  0.984500  -0.371463
    N   N2   0.203890  0.727460  0.984500  -0.368587
    C   C14  0.131480  0.696410  0.083320  0.951444
    N   N3   0.060990  0.737160  0.182160  -0.374539
    N   N4   0.062820  0.806360  0.182160  -0.365643
    C   C15  0.135200  0.836880  0.083330  0.956825
    C   C16  0.128430  0.581010  0.216110  -0.031241
    C   C17  0.126480  0.508180  0.216100  -0.088173
    C   C18  0.126460  0.508200  0.950510  -0.085936
    C   C19  0.128390  0.581030  0.950520  -0.034569
    C   C20  0.129390  0.617440  0.083320  -0.397266
    H   H5   0.141000  0.054750  0.324280  0.094402
    H   H6   0.137500  0.922610  0.324270  0.092974
    H   H7   0.137450  0.922640  0.842430  0.093525
    H   H8   0.140930  0.054780  0.842430  0.094159
    H   H9   0.129220  0.610660  0.324240  0.093381
    H   H10  0.125700  0.478520  0.324220  0.094221
    H   H11  0.125670  0.478550  0.842390  0.093913
    H   H12  0.129170  0.610690  0.842400  0.093375
    C   C21  0.143210  0.139050  0.083350  0.508235
    C   C22  0.141150  0.061530  0.083360  0.060811
    O   O5   0.143910  0.165060  0.210880  -0.506278
    O   O6   0.143880  0.165060  0.955820  -0.504975
    C   C23  0.123450  0.394250  0.083320  0.509522
    C   C24  0.125500  0.471770  0.083310  0.059721
    O   O7   0.122760  0.368240  0.955790  -0.505358
    O   O8   0.122770  0.368240  0.210850  -0.506514
    C   C25  0.047850  0.313790  0.659970  -0.004803
    C   C26  0.047880  0.313790  0.506640  -0.003157
    C   C27  0.218820  0.219510  0.506710  -0.005330
    C   C28  0.218800  0.219510  0.660040  -0.004195
    H   H13  0.978240  0.352180  0.722360  0.123138
    H   H14  0.978300  0.352180  0.444210  0.123160
    H   H15  0.288420  0.181120  0.444300  0.123679
    H   H16  0.288380  0.181110  0.722480  0.123737
    N   N5   0.133310  0.266650  0.736670  -0.066676
    N   N6   0.133350  0.266650  0.430000  -0.070231
