# Generated by REPEAT Assigner based on pymatgen
data_DB6-cuf_8520
_audit_creation_date              2022-05-24
_audit_creation_method            REPEAT_Assigner
_cell_length_a                    15.995300
_cell_length_b                    16.109300
_cell_length_c                    14.421500
_cell_angle_alpha                 90.008600
_cell_angle_beta                  90.011700
_cell_angle_gamma                 83.474200
_cell_volume                      3691.955316
_symmetry_space_group_name_H-M    P1
_symmetry_Int_Tables_number       1
loop_
    _symmetry_equiv_pos_site_id
    _symmetry_equiv_pos_as_xyz
    1  x,y,z
loop_
    _atom_site_type_symbol
    _atom_site_label
    _atom_site_fract_x
    _atom_site_fract_y
    _atom_site_fract_z
    _atom_type_partial_charge
    Cu  Cu1  0.153450  0.114480  0.118810  0.750801
    Cu  Cu2  0.153470  0.114490  0.301200  0.687272
    C   C1   0.569680  0.113020  0.210010  -0.032583
    C   C2   0.605000  0.113940  0.108420  0.214726
    C   C3   0.701730  0.115320  0.108360  0.239120
    C   C4   0.737240  0.115950  0.210000  -0.121717
    C   C5   0.712620  0.036000  0.260450  0.239317
    C   C6   0.615920  0.034240  0.259790  0.204779
    C   C7   0.594960  0.192250  0.261880  0.201068
    C   C8   0.691540  0.194990  0.259980  0.245458
    C   C9   0.831930  0.117610  0.209990  0.045899
    C   C10  0.474980  0.111360  0.210020  0.010323
    F   F1   0.583930  0.045270  0.059510  -0.255311
    F   F2   0.586360  0.029000  0.349770  -0.239880
    F   F3   0.710950  0.267300  0.216520  -0.246157
    F   F4   0.740760  0.047090  0.060080  -0.241143
    F   F5   0.554350  0.264240  0.222330  -0.245739
    F   F6   0.742790  0.033440  0.350830  -0.249549
    H   H1   0.717950  0.172610  0.068780  0.051961
    H   H2   0.574230  0.170430  0.068540  0.059429
    H   H3   0.601180  0.974530  0.223930  0.067380
    H   H4   0.744630  0.977380  0.225410  0.062538
    H   H5   0.715070  0.200210  0.334130  0.061759
    H   H6   0.572010  0.192390  0.336730  0.069490
    C   C11  0.000370  0.120570  0.209990  0.839663
    C   C12  0.907420  0.118930  0.209980  -0.317726
    O   O1   0.031550  0.121110  0.129250  -0.547811
    O   O2   0.031570  0.121120  0.290730  -0.550356
    C   C13  0.306540  0.108400  0.210020  0.816962
    C   C14  0.399490  0.110040  0.210030  -0.292509
    O   O3   0.275390  0.107620  0.290760  -0.534062
    O   O4   0.275310  0.108090  0.129280  -0.546546
    C   C15  0.154220  0.657840  0.125930  0.442489
    C   C16  0.152690  0.571110  0.125940  -0.336088
    C   C17  0.152700  0.571140  0.294080  0.452186
    C   C18  0.154230  0.657860  0.294080  -0.339676
    C   C19  0.154990  0.701210  0.210000  -0.043531
    C   C20  0.151930  0.527770  0.210010  -0.053048
    C   C21  0.150270  0.433740  0.210010  0.098821
    C   C22  0.156650  0.795240  0.210000  0.083634
    N   N1   0.151960  0.528900  0.381690  -0.925365
    H   H7   0.150820  0.464480  0.387160  0.387539
    H   H8   0.152560  0.562410  0.443680  0.379302
    N   N2   0.154960  0.700080  0.038320  -0.914808
    H   H9   0.156100  0.764500  0.032850  0.384665
    H   H10  0.154360  0.666560  0.976330  0.380120
    H   H11  0.152070  0.535810  0.057480  0.189999
    H   H12  0.154860  0.693170  0.362540  0.190868
    C   C23  0.159600  0.962480  0.210000  0.748639
    C   C24  0.157970  0.870190  0.209990  -0.341776
    O   O5   0.160160  0.993460  0.290740  -0.477591
    O   O6   0.160140  0.993450  0.129260  -0.514793
    C   C25  0.147310  0.266490  0.210010  0.835791
    C   C26  0.148950  0.358790  0.210020  -0.368670
    O   O7   0.146760  0.235510  0.129270  -0.540996
    O   O8   0.146760  0.235530  0.290750  -0.540794
    C   C27  0.212810  0.055320  0.740910  0.389133
    C   C28  0.137100  0.039390  0.679060  -0.093311
    C   C29  0.153450  0.114480  0.801370  0.070330
    C   C30  0.229170  0.130390  0.679120  -0.022069
    C   C31  0.153470  0.114490  0.618650  0.589607
    C   C32  0.077700  0.098510  0.740880  0.353148
    C   C33  0.169820  0.189540  0.740940  0.376084
    C   C34  0.094050  0.173640  0.679130  0.045428
    C   C35  0.153440  0.114470  0.906630  -0.085404
    C   C36  0.153460  0.114500  0.513390  -0.275674
    O   O9   0.304690  0.148750  0.637110  -0.333071
    C   C37  0.370580  0.141590  0.702310  0.049675
    H   H13  0.396090  0.075080  0.711050  0.055389
    H   H14  0.351440  0.170510  0.770260  0.037326
    H   H15  0.422280  0.175000  0.674940  0.072621
    O   O10  0.185380  0.266600  0.780410  -0.392279
    C   C38  0.219390  0.317040  0.713370  0.077947
    H   H16  0.201510  0.383460  0.732020  0.065828
    H   H17  0.196080  0.307940  0.641660  0.012177
    H   H18  0.289010  0.305830  0.714500  0.030685
    O   O11  0.030760  0.229590  0.636890  -0.357403
    C   C39  0.011500  0.302210  0.690840  0.119528
    H   H19  0.944750  0.326570  0.678340  0.045736
    H   H20  0.050340  0.351180  0.668180  0.028788
    H   H21  0.018770  0.291550  0.766700  -0.018123
    O   O12  0.002570  0.071160  0.774720  -0.328442
    C   C40  0.946550  0.139160  0.805080  -0.032421
    H   H22  0.894940  0.114590  0.844170  0.091608
    H   H23  0.917420  0.174450  0.745030  0.064182
    H   H24  0.976940  0.180640  0.853010  0.058621
    O   O13  0.123900  0.957730  0.651610  -0.326356
    C   C41  0.055360  0.959940  0.589870  0.092565
    H   H25  0.027810  0.899970  0.595550  0.061188
    H   H26  0.077720  0.965000  0.517560  0.043756
    H   H27  0.004010  0.010880  0.604630  0.008601
    O   O14  0.273930  0.986560  0.759200  -0.375273
    C   C42  0.308660  0.991030  0.848310  0.085537
    H   H28  0.366450  0.946100  0.851800  0.071790
    H   H29  0.264660  0.971380  0.901280  0.039953
    H   H30  0.327730  0.053700  0.863930  -0.009024
    N   N3   0.153440  0.114470  0.990530  -0.057010
    N   N4   0.153470  0.114510  0.429480  0.044857
