# Generated by REPEAT Assigner based on pymatgen
data_DB6-cuf_2596
_audit_creation_date              2022-05-24
_audit_creation_method            REPEAT_Assigner
_cell_length_a                    15.995300
_cell_length_b                    15.625200
_cell_length_c                    13.448300
_cell_angle_alpha                 108.080000
_cell_angle_beta                  90.013700
_cell_angle_gamma                 83.873500
_cell_volume                      3175.000001
_symmetry_space_group_name_H-M    P1
_symmetry_Int_Tables_number       1
loop_
    _symmetry_equiv_pos_site_id
    _symmetry_equiv_pos_as_xyz
    1  x,y,z
loop_
    _atom_site_type_symbol
    _atom_site_label
    _atom_site_fract_x
    _atom_site_fract_y
    _atom_site_fract_z
    _atom_type_partial_charge
    Cu  Cu1  0.197070  0.198020  0.995490  0.610109
    Cu  Cu2  0.197100  0.198010  0.191070  0.591230
    C   C1   0.613300  0.196420  0.092710  0.292029
    C   C2   0.648620  0.197440  0.984130  0.289533
    C   C3   0.745350  0.198930  0.984610  0.100023
    C   C4   0.780860  0.199610  0.093840  0.251365
    C   C5   0.756130  0.112900  0.116680  0.117760
    C   C6   0.659430  0.110990  0.115290  0.183351
    C   C7   0.638700  0.282330  0.179310  0.193194
    C   C8   0.735290  0.285300  0.178340  0.112047
    C   C9   0.875560  0.201400  0.094490  0.004883
    C   C10  0.518600  0.194620  0.092070  -0.018176
    N   N1   0.622090  0.095800  0.207680  -0.838081
    H   H1   0.645150  0.031600  0.210930  0.319378
    H   H2   0.635060  0.143980  0.277480  0.268632
    N   N2   0.795220  0.102700  0.212120  -0.809948
    H   H3   0.787930  0.038600  0.217630  0.310710
    H   H4   0.769080  0.151560  0.279780  0.263627
    N   N3   0.589470  0.365070  0.171380  -0.862899
    H   H5   0.592080  0.417740  0.241460  0.337463
    H   H6   0.612420  0.385270  0.110410  0.304832
    N   N4   0.758580  0.369990  0.165070  -0.956461
    H   H7   0.732540  0.424290  0.228220  0.332942
    H   H8   0.823180  0.372510  0.174160  0.360248
    N   N5   0.620160  0.124490  0.896650  -0.916335
    H   H9   0.632890  0.137100  0.826540  0.352979
    H   H10  0.652250  0.061550  0.891950  0.308795
    N   N6   0.789640  0.129970  0.893960  -0.871813
    H   H11  0.850150  0.146740  0.885060  0.343135
    H   H12  0.795650  0.065580  0.902420  0.265155
    H   H13  0.761650  0.261050  0.964560  0.068021
    H   H14  0.617930  0.258690  0.963450  0.056368
    H   H15  0.644600  0.046250  0.053500  0.051512
    H   H16  0.788050  0.049340  0.056190  0.050823
    H   H17  0.758830  0.290960  0.259900  0.018073
    H   H18  0.615760  0.282470  0.259620  0.061738
    C   C11  0.044010  0.204610  0.095640  0.875496
    C   C12  0.951050  0.202840  0.094990  -0.418490
    O   O1   0.075190  0.205210  0.009280  -0.553807
    O   O2   0.075210  0.205200  0.182440  -0.521978
    C   C13  0.350160  0.191420  0.090910  0.867658
    C   C14  0.443110  0.193190  0.091560  -0.401644
    O   O3   0.319010  0.190550  0.177180  -0.548227
    O   O4   0.318920  0.191090  0.004210  -0.534784
    C   C15  0.195450  0.603970  0.329820  -0.149439
    C   C16  0.193780  0.509930  0.295890  -0.179138
    C   C17  0.193760  0.509940  0.115600  0.133874
    C   C18  0.195430  0.603980  0.149520  0.091615
    C   C19  0.196270  0.650990  0.256630  -0.053411
    C   C20  0.196250  0.651000  0.076320  -0.067997
    C   C21  0.197920  0.745030  0.110230  -0.003547
    C   C22  0.198760  0.792050  0.217340  -0.263604
    C   C23  0.197940  0.745020  0.290540  0.372868
    C   C24  0.195400  0.603990  0.969210  -0.205076
    C   C25  0.196230  0.651010  0.896020  0.307480
    C   C26  0.197900  0.745040  0.929930  0.016221
    C   C27  0.198740  0.792060  0.037030  0.031203
    C   C28  0.198720  0.792070  0.856730  -0.189393
    C   C29  0.200390  0.886100  0.890640  -0.150462
    C   C30  0.200410  0.886090  0.070950  0.148827
    N   N7   0.247140  0.932420  0.159000  -0.455710
    H   H19  0.300470  0.899040  0.181390  0.249320
    H   H20  0.237540  0.002930  0.191190  0.178955
    N   N8   0.195170  0.599110  0.787020  -0.872674
    H   H21  0.169150  0.625940  0.730580  0.343744
    H   H22  0.209190  0.528720  0.763120  0.363841
    N   N9   0.146650  0.463730  0.027820  -0.434499
    H   H23  0.156190  0.393230  0.995560  0.186050
    H   H24  0.093260  0.497250  0.005770  0.227533
    N   N10  0.192010  0.797710  0.399590  -0.906345
    H   H25  0.207940  0.864010  0.423210  0.373166
    H   H26  0.161650  0.777880  0.456020  0.362274
    H   H27  0.200110  0.868620  0.244950  0.109086
    H   H28  0.196130  0.642240  0.417050  0.109828
    H   H29  0.193110  0.471650  0.355510  0.118087
    H   H30  0.194040  0.527420  0.941600  0.095752
    H   H31  0.198040  0.753780  0.769510  0.125125
    H   H32  0.201060  0.924380  0.831030  0.104362
    C   C31  0.203000  0.033190  0.033840  0.461452
    C   C32  0.201230  0.933110  0.997750  -0.070448
    O   O5   0.203610  0.066770  0.132530  -0.369547
    O   O6   0.203590  0.066780  0.959370  -0.430236
    C   C33  0.191160  0.362840  0.152710  0.469020
    C   C34  0.192940  0.462920  0.188810  -0.065743
    O   O7   0.190560  0.329260  0.054020  -0.366853
    O   O8   0.190580  0.329250  0.227190  -0.398414
    C   C35  0.140330  0.259430  0.827990  0.329786
    C   C36  0.140340  0.259430  0.723890  -0.302282
    C   C37  0.197080  0.198020  0.649720  0.087771
    C   C38  0.253820  0.136610  0.679650  0.166551
    C   C39  0.253810  0.136610  0.783760  -0.096456
    C   C40  0.253830  0.136600  0.462670  0.203004
    C   C41  0.253840  0.136600  0.358560  -0.134788
    C   C42  0.140360  0.259420  0.402810  0.345787
    C   C43  0.140350  0.259430  0.506910  -0.269444
    C   C44  0.197090  0.198010  0.536840  0.023768
    F   F1   0.085710  0.319180  0.900170  -0.117629
    F   F2   0.330250  0.104110  0.631730  -0.138043
    F   F3   0.283580  0.054160  0.469230  -0.146905
    F   F4   0.085190  0.318510  0.373470  -0.142317
    H   H33  0.094150  0.309450  0.699540  0.160895
    H   H34  0.094150  0.309430  0.567300  0.160230
    H   H35  0.300050  0.086590  0.298170  0.190852
    H   H36  0.300000  0.086600  0.808110  0.189237
    N   N11  0.197060  0.198020  0.857920  -0.089441
    N   N12  0.197110  0.198010  0.328630  -0.078188
