# Generated by REPEAT Assigner based on pymatgen
data_DB6-cuf_3622
_audit_creation_date              2022-05-24
_audit_creation_method            REPEAT_Assigner
_cell_length_a                    14.971500
_cell_length_b                    15.625200
_cell_length_c                    17.666300
_cell_angle_alpha                 108.083000
_cell_angle_beta                  90.001300
_cell_angle_gamma                 83.939200
_cell_volume                      3904.296339
_symmetry_space_group_name_H-M    P1
_symmetry_Int_Tables_number       1
loop_
    _symmetry_equiv_pos_site_id
    _symmetry_equiv_pos_as_xyz
    1  x,y,z
loop_
    _atom_site_type_symbol
    _atom_site_label
    _atom_site_fract_x
    _atom_site_fract_y
    _atom_site_fract_z
    _atom_type_partial_charge
    Cu  Cu1  0.176570  0.177140  0.060430  0.581743
    Cu  Cu2  0.176580  0.177140  0.209320  0.549117
    C   C1   0.867110  0.180770  0.204510  0.485510
    C   C2   0.773810  0.179000  0.204020  -0.398129
    C   C3   0.727160  0.178110  0.135140  0.075866
    C   C4   0.773810  0.179000  0.066760  0.180272
    C   C5   0.867110  0.180770  0.067250  -0.252260
    C   C6   0.579350  0.175290  0.065740  0.233236
    C   C7   0.486050  0.173520  0.065250  -0.252808
    C   C8   0.486050  0.173520  0.202510  0.510723
    C   C9   0.579350  0.175290  0.203000  -0.403561
    C   C10  0.625990  0.176180  0.134610  0.050908
    N   N1   0.438040  0.171860  0.272000  -0.913146
    H   H1   0.368340  0.171010  0.272230  0.351231
    H   H2   0.471650  0.171280  0.323690  0.354438
    N   N2   0.915140  0.182440  0.274890  -0.884238
    H   H3   0.984770  0.183290  0.275630  0.348504
    H   H4   0.881540  0.182950  0.326880  0.346335
    N   N3   0.617860  0.124080  0.988250  -0.608384
    H   H5   0.666950  0.069140  0.981260  0.269718
    H   H6   0.589050  0.131950  0.936580  0.285084
    N   N4   0.735280  0.230200  0.017380  -0.524893
    H   H7   0.764140  0.222330  0.961390  0.263015
    H   H8   0.686260  0.285150  0.040560  0.249349
    H   H9   0.735840  0.178290  0.259710  0.168752
    H   H10  0.617330  0.176010  0.259080  0.171805
    H   H11  0.448070  0.172790  0.009160  0.155880
    H   H12  0.905090  0.181490  0.011560  0.162518
    C   C11  0.013050  0.183540  0.136640  0.656398
    C   C12  0.913760  0.181650  0.136120  -0.222563
    O   O1   0.046370  0.184180  0.070900  -0.494101
    O   O2   0.046380  0.184180  0.202720  -0.399361
    C   C13  0.340100  0.170740  0.133110  0.646957
    C   C14  0.439400  0.172630  0.133630  -0.244608
    O   O3   0.306790  0.170100  0.198850  -0.399943
    O   O4   0.306770  0.170110  0.067030  -0.481202
    C   C15  0.174810  0.583110  0.314950  -0.196512
    C   C16  0.173030  0.489060  0.289120  -0.084537
    C   C17  0.173020  0.489060  0.151870  0.292815
    C   C18  0.174810  0.583110  0.177690  -0.089291
    C   C19  0.175700  0.630120  0.259230  0.042656
    C   C20  0.175690  0.630120  0.121970  0.120819
    C   C21  0.177470  0.724160  0.147780  -0.003330
    C   C22  0.178360  0.771180  0.229320  -0.287465
    C   C23  0.177480  0.724160  0.285040  0.282235
    C   C24  0.174790  0.583110  0.040430  -0.374489
    C   C25  0.175680  0.630120  0.984710  0.319587
    C   C26  0.177460  0.724160  0.010520  -0.022533
    C   C27  0.178350  0.771180  0.092060  0.037490
    C   C28  0.178350  0.771180  0.954800  -0.152887
    C   C29  0.180120  0.865220  0.980620  -0.142601
    C   C30  0.180130  0.865220  0.117880  0.171534
    F   F1   0.174600  0.771410  0.364080  -0.199279
    F   F2   0.171030  0.583860  0.906000  -0.209312
    F   F3   0.198810  0.431080  0.078870  -0.167245
    F   F4   0.207970  0.916190  0.188950  -0.096222
    H   H13  0.179800  0.847760  0.250340  0.151777
    H   H14  0.175540  0.621390  0.381350  0.142587
    H   H15  0.172310  0.450790  0.334500  0.107427
    H   H16  0.173340  0.506530  0.019410  0.203491
    H   H17  0.177620  0.732890  0.888410  0.137205
    H   H18  0.180850  0.903500  0.935240  0.118863
    C   C31  0.182910  0.012320  0.089630  0.571853
    C   C32  0.181020  0.912230  0.062160  -0.093639
    O   O5   0.183550  0.045910  0.164760  -0.490199
    O   O6   0.183540  0.045900  0.032940  -0.461175
    C   C33  0.170250  0.341960  0.180120  0.568557
    C   C34  0.172140  0.442050  0.207600  -0.159285
    O   O7   0.169610  0.308380  0.104990  -0.391241
    O   O8   0.169620  0.308380  0.236810  -0.477835
    C   C35  0.237180  0.115800  0.899260  -0.055972
    C   C36  0.237180  0.115800  0.820010  0.327823
    C   C37  0.176580  0.177140  0.797220  -0.440285
    C   C38  0.115950  0.238480  0.853690  -0.223706
    C   C39  0.115950  0.238470  0.932930  0.503277
    N   N5   0.165480  0.256910  0.694700  -0.348135
    N   N6   0.165490  0.256910  0.619420  -0.378405
    C   C40  0.176580  0.177150  0.558460  0.957286
    N   N7   0.187690  0.097390  0.575630  -0.343860
    N   N8   0.187690  0.097400  0.650910  -0.361878
    C   C41  0.176570  0.177150  0.711290  0.951664
    C   C42  0.237200  0.115810  0.416070  0.302729
    C   C43  0.237190  0.115800  0.336820  0.039856
    C   C44  0.115970  0.238490  0.370500  0.509599
    C   C45  0.115970  0.238490  0.449750  -0.219732
    C   C46  0.176590  0.177150  0.472530  -0.446339
    F   F5   0.297200  0.056610  0.766380  -0.189847
    F   F6   0.057060  0.297820  0.987610  -0.186300
    F   F7   0.297200  0.056650  0.437240  -0.183477
    F   F8   0.057110  0.297830  0.348430  -0.158073
    H   H19  0.286540  0.065850  0.917800  0.155371
    H   H20  0.066610  0.288430  0.835130  0.139464
    H   H21  0.286550  0.065860  0.290850  0.134877
    H   H22  0.066620  0.288440  0.495720  0.137511
    N   N9   0.176570  0.177130  0.955710  -0.167270
    N   N10  0.176590  0.177150  0.314040  -0.244157
