# Generated by REPEAT Assigner based on pymatgen
data_DB6-cuf_8723
_audit_creation_date              2022-05-24
_audit_creation_method            REPEAT_Assigner
_cell_length_a                    15.944500
_cell_length_b                    17.019300
_cell_length_c                    14.472300
_cell_angle_alpha                 86.127800
_cell_angle_beta                  90.009400
_cell_angle_gamma                 83.441500
_cell_volume                      3892.533981
_symmetry_space_group_name_H-M    P1
_symmetry_Int_Tables_number       1
loop_
    _symmetry_equiv_pos_site_id
    _symmetry_equiv_pos_as_xyz
    1  x,y,z
loop_
    _atom_site_type_symbol
    _atom_site_label
    _atom_site_fract_x
    _atom_site_fract_y
    _atom_site_fract_z
    _atom_type_partial_charge
    Cu  Cu1  0.194920  0.162850  0.038830  0.847176
    Cu  Cu2  0.194940  0.162870  0.220580  0.766610
    C   C1   0.722800  0.163320  0.042150  0.169487
    C   C2   0.676150  0.097390  0.091140  0.349753
    C   C3   0.777390  0.164230  0.129590  0.151795
    C   C4   0.657900  0.227370  0.080820  0.302644
    C   C5   0.612480  0.161490  0.129820  0.113965
    C   C6   0.731970  0.098270  0.178580  0.189111
    C   C7   0.713710  0.228300  0.168240  0.200546
    C   C8   0.667090  0.162360  0.217290  0.222891
    C   C9   0.872390  0.165800  0.129460  -0.272723
    C   C10  0.517480  0.159910  0.129960  -0.091368
    N   N1   0.648110  0.025030  0.042740  -0.808469
    H   H1   0.619880  0.990750  0.093910  0.302063
    H   H2   0.704660  0.992220  0.025460  0.313337
    N   N2   0.766050  0.026360  0.225200  -0.827937
    H   H3   0.801740  0.046090  0.277670  0.335343
    H   H4   0.808660  0.996350  0.181230  0.274347
    N   N3   0.746930  0.161770  0.941080  -0.762327
    H   H5   0.778300  0.212140  0.929340  0.308274
    H   H6   0.792280  0.112680  0.937180  0.284566
    N   N4   0.610270  0.294650  0.021370  -0.790951
    H   H7   0.571920  0.327410  0.066920  0.294623
    H   H8   0.657360  0.329540  0.999590  0.306838
    N   N5   0.729110  0.297130  0.202910  -0.808033
    H   H9   0.672880  0.327740  0.224860  0.266536
    H   H10  0.765160  0.278600  0.262350  0.305988
    N   N6   0.629330  0.159240  0.305420  -0.727586
    H   H11  0.680810  0.162540  0.349110  0.263241
    H   H12  0.588570  0.211320  0.311020  0.264789
    C   C11  0.041350  0.168620  0.129240  0.776925
    C   C12  0.948110  0.167060  0.129350  -0.188347
    O   O1   0.072640  0.169140  0.048740  -0.574697
    O   O2   0.072650  0.169150  0.209650  -0.554675
    C   C13  0.348510  0.157100  0.130180  0.793299
    C   C14  0.441750  0.158660  0.130060  -0.266229
    O   O3   0.317220  0.156590  0.210670  -0.550884
    O   O4   0.317210  0.156570  0.049760  -0.547029
    C   C15  0.198950  0.889920  0.067640  -0.229946
    C   C16  0.197490  0.807640  0.074200  0.243066
    C   C17  0.196770  0.766510  0.161240  0.052734
    C   C18  0.197510  0.807670  0.241750  -0.319226
    C   C19  0.198970  0.889950  0.235190  0.326046
    C   C20  0.192370  0.518080  0.185220  0.180802
    C   C21  0.190910  0.435800  0.191770  -0.195667
    C   C22  0.190900  0.435780  0.024220  0.353861
    C   C23  0.192350  0.518060  0.017670  -0.354454
    C   C24  0.193090  0.559210  0.098170  0.123701
    C   C25  0.195290  0.682410  0.167940  -0.115627
    C   C26  0.194590  0.643310  0.091470  -0.182681
    F   F1   0.175680  0.780070  0.992830  -0.174281
    F   F2   0.199490  0.929840  0.313140  -0.184809
    F   F3   0.214240  0.545650  0.266590  -0.152817
    F   F4   0.190370  0.395890  0.946270  -0.188788
    H   H13  0.199530  0.923410  0.996760  0.173768
    H   H14  0.192940  0.551550  0.946790  0.178974
    H   H15  0.190320  0.402320  0.262660  0.161264
    H   H16  0.196930  0.774170  0.312630  0.174970
    H   H17  0.195180  0.676800  0.020600  0.161649
    H   H18  0.194700  0.648910  0.238820  0.138232
    C   C27  0.201240  0.018640  0.141180  0.578010
    C   C28  0.199680  0.931070  0.148140  -0.130935
    O   O5   0.201770  0.048030  0.219300  -0.437148
    O   O6   0.201750  0.048020  0.058380  -0.493501
    C   C29  0.188620  0.307080  0.118240  0.589269
    C   C30  0.190170  0.394650  0.111270  -0.161424
    O   O7   0.188090  0.277690  0.040120  -0.442803
    O   O8   0.188110  0.277700  0.201030  -0.481753
    C   C31  0.194930  0.162870  0.536910  -0.082596
    C   C32  0.264090  0.098130  0.581260  0.206204
    C   C33  0.263900  0.097900  0.688370  0.226838
    C   C34  0.194930  0.162860  0.722500  -0.232985
    C   C35  0.107240  0.145090  0.685020  0.222279
    C   C36  0.107650  0.144640  0.577930  0.223890
    C   C37  0.212680  0.245550  0.569830  0.132598
    C   C38  0.214670  0.245000  0.677000  0.303670
    C   C39  0.194920  0.162850  0.827390  0.265433
    C   C40  0.194940  0.162870  0.432020  0.190157
    F   F5   0.251380  0.023930  0.553860  -0.214934
    F   F6   0.043400  0.199170  0.540140  -0.229670
    F   F7   0.292540  0.262480  0.707650  -0.232600
    F   F8   0.250350  0.023710  0.727450  -0.224107
    F   F9   0.288390  0.265990  0.533860  -0.207596
    F   F10  0.043820  0.200910  0.713510  -0.224755
    H   H19  0.329080  0.108440  0.713840  0.085513
    H   H20  0.329480  0.108500  0.554700  0.084784
    H   H21  0.092030  0.084340  0.557730  0.074088
    H   H22  0.091240  0.085490  0.716580  0.085060
    H   H23  0.167570  0.295410  0.699740  0.071985
    H   H24  0.162250  0.293720  0.540640  0.094265
    N   N7   0.194920  0.162840  0.911000  -0.248277
    N   N8   0.194940  0.162880  0.348410  -0.192623
