# Generated by REPEAT Assigner based on pymatgen
data_DB6-cuf_10725
_audit_creation_date              2022-05-24
_audit_creation_method            REPEAT_Assigner
_cell_length_a                    10.654600
_cell_length_b                    9.065200
_cell_length_c                    17.666300
_cell_angle_alpha                 90.001500
_cell_angle_beta                  90.002600
_cell_angle_gamma                 84.747100
_cell_volume                      1699.152626
_symmetry_space_group_name_H-M    P1
_symmetry_Int_Tables_number       1
loop_
    _symmetry_equiv_pos_site_id
    _symmetry_equiv_pos_as_xyz
    1  x,y,z
loop_
    _atom_site_type_symbol
    _atom_site_label
    _atom_site_fract_x
    _atom_site_fract_y
    _atom_site_fract_z
    _atom_type_partial_charge
    Cu  Cu1  0.132380  0.065970  0.208860  0.592971
    Cu  Cu2  0.132400  0.065980  0.357750  0.603165
    C   C1   0.697910  0.068010  0.351940  0.297488
    C   C2   0.566870  0.063940  0.351930  -0.203622
    C   C3   0.566880  0.063940  0.214670  0.342804
    C   C4   0.697910  0.068020  0.214680  -0.239716
    F   F1   0.761610  0.069750  0.418250  -0.190067
    F   F2   0.503100  0.062350  0.148360  -0.218252
    H   H1   0.513540  0.062300  0.407820  0.134674
    H   H2   0.751250  0.069670  0.158790  0.150777
    C   C5   0.902890  0.074390  0.283310  0.512509
    C   C6   0.763430  0.070050  0.283310  -0.131478
    O   O1   0.949680  0.075840  0.217400  -0.403211
    O   O2   0.949690  0.075850  0.349220  -0.357067
    C   C7   0.361890  0.057550  0.283300  0.571351
    C   C8   0.501350  0.061900  0.283300  -0.172385
    O   O3   0.315100  0.056090  0.349220  -0.426207
    O   O4   0.315090  0.056100  0.217390  -0.373497
    C   C9   0.138500  0.796310  0.283310  0.814484
    C   C10  0.134170  0.632490  0.283310  -0.206036
    O   O5   0.139970  0.851280  0.349220  -0.541184
    O   O6   0.139950  0.851280  0.217400  -0.552061
    C   C11  0.126280  0.335640  0.283310  0.793549
    C   C12  0.130640  0.499450  0.283310  -0.195496
    O   O7   0.124820  0.280670  0.349220  -0.551256
    O   O8   0.124820  0.280660  0.217400  -0.526970
    C   C13  0.216460  0.966350  0.064530  -0.133185
    C   C14  0.216460  0.966340  0.985280  0.570663
    C   C15  0.132390  0.065970  0.945650  -0.555939
    C   C16  0.048300  0.165590  0.985280  -0.221854
    C   C17  0.048290  0.165590  0.064520  0.490249
    N   N1   0.118150  0.196380  0.821230  -0.368235
    N   N2   0.118160  0.196380  0.745950  -0.388313
    C   C18  0.132400  0.065990  0.706890  0.984993
    N   N3   0.146650  0.935600  0.745950  -0.345657
    N   N4   0.146650  0.935600  0.821240  -0.361245
    C   C19  0.132390  0.065990  0.859720  0.987858
    C   C20  0.216480  0.966360  0.581340  0.601663
    C   C21  0.216470  0.966350  0.502090  -0.192521
    C   C22  0.048310  0.165610  0.502090  0.471899
    C   C23  0.048320  0.165610  0.581340  -0.201091
    C   C24  0.132410  0.065990  0.620960  -0.568615
    N   N5   0.959030  0.264750  0.105130  -0.832014
    H   H3   0.957980  0.265670  0.164220  0.365136
    H   H4   0.895910  0.339990  0.076370  0.359572
    N   N6   0.308640  0.869080  0.947520  -1.074740
    H   H5   0.341160  0.893070  0.893690  0.426373
    H   H6   0.360140  0.784060  0.977190  0.425748
    N   N7   0.308510  0.868990  0.619160  -1.095309
    H   H7   0.340760  0.892690  0.673100  0.425518
    H   H8   0.360090  0.784040  0.589500  0.432593
    N   N8   0.959030  0.264860  0.461530  -0.797306
    H   H9   0.958010  0.265770  0.402440  0.358864
    H   H10  0.895970  0.340020  0.490280  0.352373
    H   H11  0.284920  0.885220  0.096780  0.163335
    H   H12  0.979850  0.246720  0.953010  0.144086
    H   H13  0.284930  0.885230  0.469840  0.166391
    H   H14  0.979860  0.246730  0.613600  0.142770
    N   N9   0.132380  0.065960  0.104140  -0.143946
    N   N10  0.132400  0.065980  0.462470  -0.115383
