# Generated by REPEAT Assigner based on pymatgen
data_DB6-cuf_746
_audit_creation_date              2022-05-24
_audit_creation_method            REPEAT_Assigner
_cell_length_a                    15.625200
_cell_length_b                    12.811400
_cell_length_c                    11.295700
_cell_angle_alpha                 88.715500
_cell_angle_beta                  67.892200
_cell_angle_gamma                 82.447500
_cell_volume                      2075.858404
_symmetry_space_group_name_H-M    P1
_symmetry_Int_Tables_number       1
loop_
    _symmetry_equiv_pos_site_id
    _symmetry_equiv_pos_as_xyz
    1  x,y,z
loop_
    _atom_site_type_symbol
    _atom_site_label
    _atom_site_fract_x
    _atom_site_fract_y
    _atom_site_fract_z
    _atom_type_partial_charge
    Cu  Cu1  0.259510  0.127840  0.983090  0.703252
    Cu  Cu2  0.245000  0.144890  0.221730  0.562740
    C   C1   0.675750  0.113680  0.814020  -0.180633
    C   C2   0.579170  0.114570  0.855650  -0.100652
    C   C3   0.565790  0.130280  0.075630  0.123734
    C   C4   0.662370  0.129400  0.034020  0.082145
    C   C5   0.717350  0.121090  0.903210  -0.016075
    C   C6   0.703970  0.136810  0.123210  -0.020114
    C   C7   0.800540  0.135920  0.081600  0.109501
    C   C8   0.855520  0.127620  0.950800  -0.375414
    C   C9   0.813920  0.120200  0.861600  0.279209
    C   C10  0.648990  0.145110  0.254020  -0.300744
    C   C11  0.690590  0.152520  0.343210  0.260643
    C   C12  0.787160  0.151640  0.301600  0.075048
    C   C13  0.842140  0.143340  0.170800  -0.063846
    C   C14  0.828760  0.159050  0.390800  -0.176239
    C   C15  0.925340  0.158160  0.349190  -0.169597
    C   C16  0.938720  0.142450  0.129190  0.215861
    O   O1   0.989930  0.185560  0.010940  -0.311926
    C   C17  0.075810  0.124850  0.930450  0.054285
    H   H1   0.078140  0.121410  0.831520  -0.038393
    H   H2   0.083400  0.042530  0.962420  0.011642
    H   H3   0.135930  0.164480  0.925590  0.083361
    O   O2   0.635930  0.159870  0.474930  -0.396055
    C   C18  0.582230  0.075550  0.525220  0.291285
    H   H4   0.507070  0.105270  0.553490  -0.002602
    H   H5   0.594530  0.046620  0.611540  -0.035642
    H   H6   0.601080  0.007500  0.456570  -0.044079
    O   O3   0.503920  0.189820  0.185890  -0.196717
    C   C19  0.429780  0.139230  0.275640  -0.257583
    H   H7   0.427150  0.152000  0.373790  0.065737
    H   H8   0.439510  0.052770  0.256640  0.074258
    H   H9   0.361560  0.175950  0.275310  0.186380
    O   O4   0.866220  0.108030  0.728400  -0.370678
    C   C20  0.962940  0.119260  0.679450  0.242544
    H   H10  0.988630  0.119240  0.573620  -0.007072
    H   H11  0.003190  0.051270  0.706190  -0.014848
    H   H12  0.974250  0.195100  0.713400  0.031615
    H   H13  0.934160  0.126890  0.916920  0.196635
    H   H14  0.720510  0.106910  0.707500  0.144253
    H   H15  0.545310  0.108530  0.783010  0.125736
    H   H16  0.570360  0.145830  0.287890  0.171866
    H   H17  0.784000  0.165820  0.497300  0.127550
    H   H18  0.959200  0.164200  0.421820  0.140152
    C   C21  0.083090  0.148910  0.174100  0.456951
    C   C22  0.980310  0.149860  0.218380  -0.080809
    O   O5   0.124010  0.141050  0.053600  -0.295338
    O   O6   0.111160  0.156140  0.264880  -0.414013
    C   C23  0.421410  0.123810  0.030710  0.514590
    C   C24  0.524200  0.122860  0.986430  -0.119092
    O   O7   0.380500  0.131670  0.151220  -0.286863
    O   O8   0.393350  0.116590  0.939930  -0.474007
    C   C25  0.261580  0.597440  0.940640  0.483059
    C   C26  0.258710  0.488890  0.953600  -0.298326
    C   C27  0.245320  0.504600  0.173610  -0.203548
    C   C28  0.248190  0.613150  0.160650  -0.016818
    C   C29  0.256320  0.659570  0.044160  -0.039656
    C   C30  0.259190  0.768130  0.031210  -0.206125
    C   C31  0.245800  0.783830  0.251210  -0.324865
    C   C32  0.242930  0.675280  0.264170  0.482067
    N   N1   0.273590  0.639380  0.817100  -0.971558
    H   H19  0.304970  0.706770  0.783980  0.375752
    H   H20  0.262570  0.594780  0.749120  0.389650
    N   N2   0.238080  0.632080  0.384760  -0.963015
    H   H21  0.219650  0.681890  0.464900  0.390739
    H   H22  0.264130  0.554540  0.394170  0.368211
    H   H23  0.265810  0.805930  0.936360  0.131814
    H   H24  0.263000  0.438310  0.869290  0.136620
    H   H25  0.238710  0.466780  0.268440  0.133215
    H   H26  0.241510  0.834430  0.335510  0.144271
    C   C33  0.256990  0.945800  0.120940  0.597803
    C   C34  0.253930  0.830270  0.134740  -0.033991
    O   O9   0.251590  0.992120  0.221950  -0.488411
    O   O10  0.264440  0.977020  0.010670  -0.508905
    C   C35  0.247520  0.326930  0.083870  0.696184
    C   C36  0.250580  0.442460  0.070080  -0.071452
    O   O11  0.252920  0.280610  0.982860  -0.552203
    O   O12  0.240060  0.295700  0.194150  -0.538309
    C   C37  0.161120  0.243240  0.599040  0.240478
    C   C38  0.168860  0.234170  0.472020  -0.145766
    C   C39  0.292960  0.088650  0.434160  -0.043726
    C   C40  0.285220  0.097720  0.561190  -0.135077
    C   C41  0.219290  0.175020  0.643620  0.048951
    C   C42  0.211550  0.184080  0.770650  -0.100887
    C   C43  0.335650  0.038560  0.732790  -0.164609
    C   C44  0.343390  0.029490  0.605770  0.417081
    N   N3   0.094500  0.326830  0.677170  -0.759113
    H   H27  0.101610  0.362150  0.754520  0.329464
    H   H28  0.042930  0.364900  0.647590  0.343304
    N   N4   0.414850  0.951110  0.524990  -0.928131
    H   H29  0.446500  0.891590  0.565490  0.383776
    H   H30  0.446590  0.957650  0.426350  0.383805
    H   H31  0.157870  0.247020  0.837770  0.169005
    H   H32  0.121500  0.289740  0.435720  0.144077
    H   H33  0.346640  0.025720  0.367030  0.125290
    H   H34  0.383010  0.983000  0.769100  0.130664
    N   N5   0.269730  0.115850  0.815240  -0.083615
    N   N6   0.234780  0.156870  0.389570  -0.049112
