# Generated by REPEAT Assigner based on pymatgen
data_DB6-cuf_4915
_audit_creation_date              2022-05-24
_audit_creation_method            REPEAT_Assigner
_cell_length_a                    15.944500
_cell_length_b                    10.654600
_cell_length_c                    14.586300
_cell_angle_alpha                 90.001000
_cell_angle_beta                  90.014500
_cell_angle_gamma                 83.988100
_cell_volume                      2464.325332
_symmetry_space_group_name_H-M    P1
_symmetry_Int_Tables_number       1
loop_
    _symmetry_equiv_pos_site_id
    _symmetry_equiv_pos_as_xyz
    1  x,y,z
loop_
    _atom_site_type_symbol
    _atom_site_label
    _atom_site_fract_x
    _atom_site_fract_y
    _atom_site_fract_z
    _atom_type_partial_charge
    Cu  Cu1  0.281950  0.085170  0.009760  0.752046
    Cu  Cu2  0.281980  0.085170  0.190090  0.835897
    C   C1   0.809830  0.085910  0.013090  0.314215
    C   C2   0.762490  0.980950  0.056490  0.019456
    C   C3   0.864440  0.087350  0.099920  0.117811
    C   C4   0.745610  0.187870  0.056510  0.093972
    C   C5   0.699500  0.082990  0.099930  0.472144
    C   C6   0.818330  0.982340  0.143320  0.288527
    C   C7   0.801440  0.189350  0.143330  0.334360
    C   C8   0.754130  0.084360  0.186780  0.184023
    C   C9   0.959450  0.089850  0.099910  -0.234988
    C   C10  0.604490  0.080480  0.099940  -0.389842
    O   O1   0.698990  0.292880  0.015050  -0.375779
    C   C11  0.752410  0.360690  0.961780  0.025031
    H   H1   0.764080  0.314380  0.894180  0.048784
    H   H2   0.812840  0.373450  0.997020  0.044429
    H   H3   0.719830  0.456180  0.948750  0.075689
    O   O2   0.828500  0.295090  0.188780  -0.421163
    C   C12  0.760170  0.388970  0.201180  0.099528
    H   H4   0.772530  0.444430  0.263160  0.062453
    H   H5   0.698450  0.350640  0.211460  -0.006254
    H   H6   0.755780  0.454860  0.142230  0.024971
    O   O3   0.716690  0.075270  0.274120  -0.415691
    C   C13  0.760460  0.137050  0.341660  0.169849
    H   H7   0.753100  0.089000  0.408220  0.025303
    H   H8   0.731880  0.235770  0.349470  0.010450
    H   H9   0.829250  0.135000  0.328500  -0.035943
    O   O4   0.858360  0.867400  0.177870  -0.334247
    C   C14  0.884670  0.881910  0.268780  -0.009969
    H   H10  0.927000  0.796790  0.288260  0.067288
    H   H11  0.829890  0.887540  0.316020  0.052026
    H   H12  0.921280  0.964300  0.277220  0.041476
    O   O5   0.746480  0.872940  0.005920  -0.364212
    C   C15  0.696900  0.796630  0.057470  0.063859
    H   H13  0.710110  0.697790  0.033340  0.064127
    H   H14  0.629080  0.825850  0.044920  0.051553
    H   H15  0.710260  0.796700  0.132410  -0.008724
    O   O6   0.827040  0.077460  0.917910  -0.387298
    C   C16  0.903850  0.123860  0.895910  0.150112
    H   H16  0.905800  0.138290  0.820700  0.027323
    H   H17  0.957550  0.053230  0.913460  0.018849
    H   H18  0.910380  0.216700  0.928200  -0.033971
    C   C17  0.128450  0.094340  0.099910  0.703491
    C   C18  0.035190  0.091860  0.099910  -0.130130
    O   O7   0.159730  0.095180  0.020090  -0.533610
    O   O8   0.159760  0.095170  0.179740  -0.551862
    C   C19  0.435480  0.076000  0.099940  0.693023
    C   C20  0.528740  0.078480  0.099940  -0.062398
    O   O9   0.404200  0.075170  0.179760  -0.561210
    O   O10  0.404170  0.075170  0.020110  -0.521498
    C   C21  0.283110  0.650670  0.016810  0.333478
    C   C22  0.280790  0.519670  0.016810  -0.236832
    C   C23  0.280830  0.519690  0.183050  0.311068
    C   C24  0.283150  0.650680  0.183050  -0.204058
    F   F1   0.284090  0.714340  0.936490  -0.206115
    F   F2   0.279940  0.455930  0.263370  -0.200645
    H   H19  0.279850  0.466360  0.949130  0.157670
    H   H20  0.284100  0.703990  0.250740  0.143966
    C   C25  0.286760  0.855570  0.099920  0.609467
    C   C26  0.284280  0.716160  0.099920  -0.168113
    O   O11  0.287600  0.902350  0.179750  -0.488842
    O   O12  0.287570  0.902360  0.020100  -0.408811
    C   C27  0.277170  0.314770  0.099930  0.591634
    C   C28  0.279650  0.454180  0.099930  -0.133444
    O   O13  0.276330  0.267990  0.020100  -0.475642
    O   O14  0.276360  0.267990  0.179760  -0.414880
    C   C29  0.225470  0.170710  0.647900  0.411994
    C   C30  0.225480  0.170710  0.551920  -0.303450
    C   C31  0.338460  0.999630  0.551960  0.414538
    C   C32  0.338460  0.999630  0.647940  -0.303068
    C   C33  0.281960  0.085170  0.695910  -0.062747
    C   C34  0.281980  0.085170  0.503950  -0.069676
    C   C35  0.281990  0.085170  0.399880  0.243789
    C   C36  0.281940  0.085180  0.799980  0.234244
    N   N1   0.397330  0.910480  0.505210  -0.886388
    H   H21  0.401020  0.904910  0.433910  0.388069
    H   H22  0.438990  0.847410  0.542310  0.383682
    N   N2   0.166600  0.259860  0.694640  -0.888108
    H   H23  0.162920  0.265430  0.765940  0.383317
    H   H24  0.124950  0.322930  0.657540  0.381607
    H   H25  0.179490  0.240380  0.512840  0.201811
    H   H26  0.384450  0.929960  0.687020  0.204601
    N   N3   0.281940  0.085180  0.882930  -0.238175
    N   N4   0.282000  0.085170  0.316920  -0.259215
