# Generated by REPEAT Assigner based on pymatgen
data_DB6-cuf_6102
_audit_creation_date              2022-05-24
_audit_creation_method            REPEAT_Assigner
_cell_length_a                    14.971500
_cell_length_b                    14.853500
_cell_length_c                    14.586300
_cell_angle_alpha                 90.001200
_cell_angle_beta                  90.007900
_cell_angle_gamma                 83.621400
_cell_volume                      3223.609221
_symmetry_space_group_name_H-M    P1
_symmetry_Int_Tables_number       1
loop_
    _symmetry_equiv_pos_site_id
    _symmetry_equiv_pos_as_xyz
    1  x,y,z
loop_
    _atom_site_type_symbol
    _atom_site_label
    _atom_site_fract_x
    _atom_site_fract_y
    _atom_site_fract_z
    _atom_type_partial_charge
    Cu  Cu1  0.217830  0.150320  0.019110  0.850991
    Cu  Cu2  0.217870  0.150320  0.199440  0.984787
    C   C1   0.908390  0.153940  0.192400  0.232872
    C   C2   0.815090  0.152170  0.192400  -0.193799
    C   C3   0.768430  0.151280  0.109280  -0.133906
    C   C4   0.815070  0.152180  0.026160  0.258685
    C   C5   0.908370  0.153960  0.026160  -0.165980
    C   C6   0.620610  0.148480  0.026150  -0.053315
    C   C7   0.527310  0.146700  0.026150  -0.009023
    C   C8   0.527330  0.146690  0.192390  0.308118
    C   C9   0.620630  0.148470  0.192400  -0.305251
    C   C10  0.667270  0.149360  0.109270  0.185671
    O   O1   0.475920  0.146590  0.273820  -0.147225
    C   C11  0.519160  0.150200  0.360820  -0.113756
    H   H1   0.467670  0.150170  0.415460  0.102474
    H   H2   0.551620  0.213620  0.367400  0.056587
    H   H3   0.568720  0.089560  0.370900  0.057958
    O   O2   0.960280  0.154250  0.273530  -0.128060
    C   C12  0.917320  0.150790  0.360670  -0.112854
    H   H4   0.867640  0.211350  0.370680  0.047681
    H   H5   0.968940  0.150950  0.415170  0.093481
    H   H6   0.884860  0.087360  0.367450  0.062456
    O   O3   0.783980  0.104460  0.950770  -0.203662
    C   C13  0.813660  0.125470  0.860610  -0.077551
    H   H7   0.763740  0.106320  0.810020  0.067580
    H   H8   0.878840  0.085160  0.844910  0.061311
    H   H9   0.819010  0.199170  0.853010  0.071307
    O   O4   0.646120  0.197230  0.949680  -0.194310
    C   C14  0.639990  0.293670  0.961060  0.026539
    H   H10  0.614040  0.316800  0.029620  0.046895
    H   H11  0.707560  0.316270  0.951460  0.018370
    H   H12  0.594290  0.326340  0.907930  0.032934
    H   H13  0.777130  0.151460  0.260080  0.124866
    H   H14  0.658620  0.149180  0.260080  0.132086
    H   H15  0.489320  0.145980  0.958460  0.108093
    H   H16  0.946340  0.154670  0.958480  0.131954
    C   C15  0.054330  0.156720  0.109280  0.714325
    C   C16  0.955030  0.154830  0.109290  -0.208036
    O   O5   0.087630  0.157360  0.029450  -0.550096
    O   O6   0.087660  0.157350  0.189110  -0.595234
    C   C17  0.381370  0.143920  0.109270  0.683006
    C   C18  0.480670  0.145810  0.109260  -0.257595
    O   O7   0.348070  0.143270  0.189100  -0.578914
    O   O8   0.348040  0.143290  0.029440  -0.541495
    C   C19  0.214310  0.462240  0.192400  -0.115808
    C   C20  0.214280  0.462240  0.026160  -0.122903
    C   C21  0.216060  0.556280  0.026160  0.026887
    C   C22  0.216960  0.603300  0.109280  -0.041287
    C   C23  0.216080  0.556290  0.192400  0.021879
    C   C24  0.216920  0.603300  0.943030  0.125694
    C   C25  0.218700  0.697340  0.943030  0.135431
    C   C26  0.219610  0.744360  0.026150  0.023640
    C   C27  0.218740  0.697340  0.109270  -0.040565
    C   C28  0.219640  0.744360  0.192390  0.013748
    C   C29  0.218770  0.697340  0.275520  0.132298
    C   C30  0.216990  0.603310  0.275520  0.135389
    C   C31  0.221390  0.838390  0.026150  -0.116691
    C   C32  0.221420  0.838400  0.192390  -0.093616
    F   F1   0.216080  0.558970  0.861640  -0.144441
    F   F2   0.219530  0.741680  0.861650  -0.152296
    F   F3   0.219620  0.741670  0.356910  -0.146956
    F   F4   0.216170  0.558960  0.356900  -0.153448
    H   H17  0.222150  0.876680  0.260080  0.116664
    H   H18  0.213600  0.423960  0.260080  0.121473
    H   H19  0.213540  0.423960  0.958480  0.129391
    H   H20  0.222100  0.876670  0.958470  0.125364
    C   C33  0.224180  0.985500  0.109270  0.589608
    C   C34  0.222300  0.885410  0.109270  -0.047639
    O   O9   0.224830  0.019080  0.189100  -0.529555
    O   O10  0.224800  0.019080  0.029440  -0.522217
    C   C35  0.211510  0.315140  0.109280  0.572870
    C   C36  0.213400  0.415220  0.109280  -0.030734
    O   O11  0.210880  0.281550  0.029450  -0.520104
    O   O12  0.210880  0.281550  0.189110  -0.528070
    C   C37  0.157230  0.211660  0.657250  0.271951
    C   C38  0.157250  0.211660  0.561270  -0.160208
    C   C39  0.278470  0.088970  0.561300  0.296546
    C   C40  0.278460  0.088980  0.657280  -0.199254
    C   C41  0.217840  0.150320  0.705260  -0.070230
    C   C42  0.217860  0.150320  0.513300  -0.128771
    C   C43  0.217870  0.150320  0.409230  0.265410
    C   C44  0.217830  0.150320  0.809330  0.211658
    O   O13  0.337890  0.028840  0.508720  -0.249307
    C   C45  0.400830  0.965140  0.554930  -0.000426
    H   H21  0.365230  0.918360  0.597430  0.056172
    H   H22  0.447430  0.000800  0.597450  0.042405
    H   H23  0.441330  0.924160  0.502970  0.094324
    O   O14  0.097820  0.271790  0.709840  -0.265949
    C   C46  0.034870  0.335490  0.663620  0.014501
    H   H24  0.988270  0.299840  0.621110  0.033714
    H   H25  0.070480  0.382280  0.621120  0.056448
    H   H26  0.994380  0.376470  0.715580  0.092356
    H   H27  0.107900  0.261620  0.522200  0.156875
    H   H28  0.327820  0.039020  0.696360  0.166038
    N   N1   0.217820  0.150320  0.892280  -0.243719
    N   N2   0.217880  0.150310  0.326270  -0.295504
