# Generated by REPEAT Assigner based on pymatgen
data_DB6-cuf_5390
_audit_creation_date              2022-05-24
_audit_creation_method            REPEAT_Assigner
_cell_length_a                    14.853500
_cell_length_b                    17.019300
_cell_length_c                    14.184900
_cell_angle_alpha                 73.085000
_cell_angle_beta                  103.147000
_cell_angle_gamma                 83.509400
_cell_volume                      3278.438547
_symmetry_space_group_name_H-M    P1
_symmetry_Int_Tables_number       1
loop_
    _symmetry_equiv_pos_site_id
    _symmetry_equiv_pos_as_xyz
    1  x,y,z
loop_
    _atom_site_type_symbol
    _atom_site_label
    _atom_site_fract_x
    _atom_site_fract_y
    _atom_site_fract_z
    _atom_type_partial_charge
    Cu  Cu1  0.168970  0.174110  0.042340  0.703983
    Cu  Cu2  0.218230  0.130950  0.243400  0.649361
    C   C1   0.482890  0.169230  0.050470  -0.025308
    C   C2   0.528310  0.129440  0.235810  -0.038014
    C   C3   0.622300  0.131030  0.235680  -0.032936
    C   C4   0.646600  0.151730  0.142940  -0.037740
    C   C5   0.576900  0.170820  0.050330  -0.080840
    C   C6   0.692010  0.111930  0.328290  0.219655
    C   C7   0.786010  0.113530  0.328160  0.202549
    C   C8   0.810310  0.134230  0.235410  -0.019978
    C   C9   0.740600  0.153330  0.142800  -0.034544
    C   C10  0.764900  0.174020  0.050060  -0.103749
    C   C11  0.695190  0.193120  0.957450  0.309171
    C   C12  0.601190  0.191520  0.957590  0.279782
    C   C13  0.904310  0.135830  0.235270  -0.046894
    C   C14  0.858900  0.175620  0.049920  0.016349
    N   N1   0.718360  0.218050  0.861200  -0.937524
    H   H1   0.686700  0.200060  0.799290  0.377911
    H   H2   0.764070  0.259820  0.848670  0.363155
    N   N2   0.529820  0.214860  0.861490  -0.917318
    H   H3   0.540590  0.197860  0.799340  0.370598
    H   H4   0.466440  0.254760  0.849190  0.361225
    N   N3   0.856560  0.092330  0.424130  -0.774479
    H   H5   0.922300  0.054910  0.439440  0.335117
    H   H6   0.841200  0.109600  0.484460  0.308555
    N   N4   0.669040  0.088310  0.424480  -0.791767
    H   H7   0.715330  0.044060  0.490120  0.324976
    H   H8   0.609320  0.120470  0.433710  0.330233
    H   H9   0.878670  0.192470  0.974400  0.062275
    H   H10  0.426140  0.184780  0.975060  0.092022
    H   H11  0.508530  0.112590  0.311320  0.066706
    H   H12  0.961060  0.120270  0.310680  0.078209
    C   C15  0.028650  0.158220  0.142380  0.623148
    C   C16  0.928600  0.156520  0.142530  -0.175650
    O   O1   0.040410  0.177900  0.053330  -0.522329
    O   O2   0.084030  0.139680  0.231340  -0.513425
    C   C17  0.358560  0.146840  0.143360  0.575805
    C   C18  0.458600  0.148530  0.143210  -0.143942
    O   O3   0.346790  0.127170  0.232410  -0.492982
    O   O4   0.303180  0.165360  0.054400  -0.500600
    C   C19  0.181100  0.894340  0.074210  -0.146110
    C   C20  0.181310  0.810500  0.081460  0.190764
    C   C21  0.204130  0.748690  0.177760  0.110667
    C   C22  0.226730  0.770720  0.266810  -0.355188
    C   C23  0.226520  0.854560  0.259560  0.387363
    C   C24  0.205900  0.494560  0.204280  0.197540
    C   C25  0.206110  0.410720  0.211520  -0.156829
    C   C26  0.160680  0.450500  0.026170  0.382821
    C   C27  0.160470  0.534340  0.018930  -0.355784
    C   C28  0.183090  0.556360  0.107990  0.101131
    C   C29  0.204340  0.662990  0.185170  -0.164240
    C   C30  0.182870  0.642060  0.100580  -0.147469
    F   F1   0.135850  0.802230  0.991460  -0.168792
    F   F2   0.248200  0.875930  0.345790  -0.211042
    F   F3   0.251420  0.502820  0.294280  -0.174602
    F   F4   0.139000  0.429120  0.939950  -0.210353
    H   H13  0.162510  0.944660  0.995800  0.137868
    H   H14  0.141890  0.584670  0.940520  0.175651
    H   H15  0.224690  0.360390  0.289940  0.144204
    H   H16  0.245320  0.720390  0.345220  0.174557
    H   H17  0.164300  0.692390  0.022170  0.154438
    H   H18  0.222920  0.612660  0.263570  0.161068
    C   C31  0.203480  0.005590  0.155560  0.699194
    C   C32  0.203700  0.916360  0.163260  -0.263477
    O   O5   0.225210  0.016420  0.241970  -0.435510
    O   O6   0.181600  0.054640  0.063970  -0.525060
    C   C33  0.183720  0.299470  0.130180  0.659318
    C   C34  0.183500  0.388690  0.122480  -0.242123
    O   O7   0.161980  0.288630  0.043760  -0.449281
    O   O8   0.205610  0.250420  0.221770  -0.485166
    C   C35  0.354580  0.011450  0.550060  -0.282529
    C   C36  0.328360  0.034430  0.443040  0.118744
    C   C37  0.203580  0.143790  0.433570  0.420027
    C   C38  0.229790  0.120820  0.540590  -0.192874
    C   C39  0.305290  0.054650  0.598830  0.115932
    C   C40  0.180500  0.164020  0.589360  0.118111
    C   C41  0.206710  0.141040  0.696380  0.081275
    C   C42  0.282200  0.074870  0.754620  -0.298873
    C   C43  0.331500  0.031670  0.705840  0.267608
    C   C44  0.105000  0.230180  0.531130  -0.329501
    C   C45  0.055700  0.273380  0.579900  0.294605
    C   C46  0.081910  0.250410  0.686910  0.097178
    C   C47  0.157410  0.184240  0.745150  -0.160608
    C   C48  0.032620  0.293610  0.735690  -0.283638
    C   C49  0.058820  0.270640  0.842700  0.110497
    C   C50  0.183620  0.161270  0.852160  0.402772
    F   F5   0.402110  0.965370  0.763790  -0.178256
    F   F6   0.980180  0.335150  0.522340  -0.186066
    F   F7   0.154200  0.218610  0.366270  -0.090338
    F   F8   0.268370  0.118500  0.916710  -0.082264
    H   H19  0.303530  0.056170  0.841750  0.157383
    H   H20  0.416060  0.957570  0.597470  0.151601
    H   H21  0.368510  0.999250  0.403330  0.114294
    H   H22  0.083660  0.248880  0.444000  0.165109
    H   H23  0.971150  0.347490  0.688270  0.154502
    H   H24  0.018690  0.305810  0.882410  0.125237
    N   N5   0.134320  0.204470  0.900930  -0.229026
    N   N6   0.252880  0.100590  0.384800  -0.227230
