# Generated by REPEAT Assigner based on pymatgen
data_DB6-cuf_7896
_audit_creation_date              2022-05-24
_audit_creation_method            REPEAT_Assigner
_cell_length_a                    15.944500
_cell_length_b                    19.188900
_cell_length_c                    17.666300
_cell_angle_alpha                 89.998000
_cell_angle_beta                  90.007800
_cell_angle_gamma                 83.315400
_cell_volume                      5368.391183
_symmetry_space_group_name_H-M    P1
_symmetry_Int_Tables_number       1
loop_
    _symmetry_equiv_pos_site_id
    _symmetry_equiv_pos_as_xyz
    1  x,y,z
loop_
    _atom_site_type_symbol
    _atom_site_label
    _atom_site_fract_x
    _atom_site_fract_y
    _atom_site_fract_z
    _atom_type_partial_charge
    Cu  Cu1  0.172080  0.153480  0.088490  0.651458
    Cu  Cu2  0.172090  0.153480  0.237370  0.609335
    C   C1   0.699960  0.153890  0.091240  0.183583
    C   C2   0.653440  0.095540  0.127070  0.345944
    C   C3   0.754540  0.154690  0.162930  0.131743
    C   C4   0.634920  0.210580  0.127080  0.348654
    C   C5   0.589640  0.152270  0.162930  0.044504
    C   C6   0.709260  0.096310  0.198760  0.201074
    C   C7   0.690740  0.211400  0.198760  0.150562
    C   C8   0.644250  0.153040  0.234640  0.277946
    C   C9   0.849540  0.156090  0.162920  -0.231619
    C   C10  0.494650  0.150870  0.162940  -0.023731
    N   N1   0.625560  0.031490  0.082720  -0.816702
    H   H1   0.597390  0.001150  0.122400  0.302293
    H   H2   0.682170  0.002450  0.066420  0.318293
    N   N2   0.743500  0.032660  0.232280  -0.831554
    H   H3   0.779140  0.050120  0.276540  0.332677
    H   H4   0.786160  0.006100  0.194300  0.281772
    N   N3   0.724100  0.152530  0.008340  -0.756378
    H   H5   0.755360  0.197110  0.002000  0.295160
    H   H6   0.769550  0.109080  0.001950  0.284606
    N   N4   0.587150  0.270140  0.082760  -0.803145
    H   H7   0.548740  0.299120  0.122210  0.299569
    H   H8   0.634180  0.301020  0.067190  0.307838
    N   N5   0.706000  0.272320  0.231640  -0.808922
    H   H9   0.649690  0.299410  0.251610  0.274093
    H   H10  0.742080  0.255920  0.279130  0.302201
    N   N6   0.606490  0.150270  0.306640  -0.755532
    H   H11  0.657960  0.153190  0.342640  0.268113
    H   H12  0.565630  0.196360  0.314610  0.268155
    C   C11  0.018500  0.158580  0.162920  0.824655
    C   C12  0.925260  0.157200  0.162910  -0.250610
    O   O1   0.049780  0.159040  0.097010  -0.572666
    O   O2   0.049790  0.159040  0.228830  -0.543320
    C   C13  0.325680  0.148380  0.162940  0.887940
    C   C14  0.418920  0.149760  0.162950  -0.353617
    O   O3   0.294390  0.147920  0.228850  -0.557506
    O   O4   0.294390  0.147920  0.097030  -0.562013
    C   C15  0.176690  0.911910  0.231570  -0.227116
    C   C16  0.175390  0.839080  0.231570  0.423163
    C   C17  0.174740  0.802670  0.162940  -0.558773
    C   C18  0.175370  0.839100  0.094310  -0.123383
    C   C19  0.176660  0.911920  0.094310  0.329111
    N   N7   0.220510  0.683130  0.111850  -0.371020
    N   N8   0.219290  0.613950  0.111860  -0.355453
    C   C20  0.170850  0.583250  0.162920  0.991256
    N   N9   0.123700  0.624350  0.214000  -0.372526
    N   N10  0.124930  0.693530  0.214000  -0.343195
    C   C21  0.173340  0.723710  0.162930  0.997814
    C   C22  0.168810  0.467870  0.231550  0.405123
    C   C23  0.167500  0.395050  0.231540  -0.208397
    C   C24  0.167500  0.395060  0.094280  0.366940
    C   C25  0.168790  0.467890  0.094290  -0.160772
    C   C26  0.169450  0.504290  0.162920  -0.531082
    F   F1   0.175870  0.804610  0.298640  -0.204347
    F   F2   0.177110  0.947220  0.027780  -0.203399
    F   F3   0.170510  0.502120  0.298610  -0.198753
    F   F4   0.166710  0.359830  0.027770  -0.209417
    H   H13  0.177220  0.941550  0.287460  0.148058
    H   H14  0.174850  0.809450  0.038430  0.129646
    H   H15  0.166980  0.365400  0.287430  0.134443
    H   H16  0.169310  0.497540  0.038410  0.134622
    C   C27  0.178700  0.025830  0.162940  0.447053
    C   C28  0.177320  0.948320  0.162950  -0.060388
    O   O5   0.179160  0.051840  0.228850  -0.405424
    O   O6   0.179150  0.051840  0.097030  -0.352343
    C   C29  0.165480  0.281130  0.162920  0.416789
    C   C30  0.166860  0.358640  0.162910  -0.080553
    O   O7   0.165020  0.255120  0.097010  -0.343380
    O   O8   0.165020  0.255130  0.228830  -0.385617
    C   C31  0.229250  0.105930  0.944160  -0.145336
    C   C32  0.229250  0.105920  0.864910  0.598764
    C   C33  0.172090  0.153480  0.825280  -0.565458
    C   C34  0.114910  0.201040  0.864890  -0.232952
    C   C35  0.114910  0.201030  0.944140  0.556242
    N   N11  0.161340  0.215270  0.700850  -0.362448
    N   N12  0.161350  0.215270  0.625570  -0.384002
    C   C36  0.172090  0.153490  0.586510  0.976867
    N   N13  0.182850  0.091710  0.625580  -0.357210
    N   N14  0.182840  0.091710  0.700860  -0.336944
    C   C37  0.172090  0.153490  0.739350  0.974039
    C   C38  0.229270  0.105930  0.460970  0.604570
    C   C39  0.229260  0.105930  0.381720  -0.174769
    C   C40  0.114920  0.201050  0.381710  0.482702
    C   C41  0.114930  0.201050  0.460960  -0.201141
    C   C42  0.172100  0.153490  0.500580  -0.571887
    N   N15  0.054270  0.248400  0.984740  -0.857418
    H   H17  0.053570  0.248840  0.043830  0.372339
    H   H18  0.011360  0.284310  0.955970  0.362333
    N   N16  0.291820  0.059450  0.827160  -1.089687
    H   H19  0.313350  0.070640  0.773330  0.422863
    H   H20  0.327060  0.018960  0.856830  0.434776
    N   N17  0.291730  0.059400  0.498800  -1.080980
    H   H21  0.313080  0.070460  0.552750  0.424435
    H   H22  0.327020  0.018950  0.469150  0.429636
    N   N18  0.054270  0.248450  0.341140  -0.838148
    H   H23  0.053590  0.248890  0.282040  0.375372
    H   H24  0.011390  0.284330  0.369880  0.357498
    H   H25  0.275800  0.067200  0.976420  0.161350
    H   H26  0.068370  0.239760  0.832620  0.143546
    H   H27  0.275810  0.067200  0.349470  0.157134
    H   H28  0.068380  0.239770  0.493210  0.140309
    N   N19  0.172080  0.153480  0.983770  -0.187960
    N   N20  0.172100  0.153490  0.342090  -0.141974
