# Generated by REPEAT Assigner based on pymatgen
data_DB6-cuf_9600
_audit_creation_date              2022-05-24
_audit_creation_method            REPEAT_Assigner
_cell_length_a                    12.811400
_cell_length_b                    12.811400
_cell_length_c                    13.330400
_cell_angle_alpha                 84.565700
_cell_angle_beta                  95.437600
_cell_angle_gamma                 84.559000
_cell_volume                      2156.384133
_symmetry_space_group_name_H-M    P1
_symmetry_Int_Tables_number       1
loop_
    _symmetry_equiv_pos_site_id
    _symmetry_equiv_pos_as_xyz
    1  x,y,z
loop_
    _atom_site_type_symbol
    _atom_site_label
    _atom_site_fract_x
    _atom_site_fract_y
    _atom_site_fract_z
    _atom_type_partial_charge
    Cu  Cu1  0.174180  0.127630  0.087390  0.749007
    Cu  Cu2  0.174200  0.127610  0.284710  0.707828
    C   C1   0.646840  0.127020  0.320050  0.250854
    C   C2   0.537350  0.124590  0.310310  -0.210863
    C   C3   0.537320  0.124590  0.128400  -0.154146
    C   C4   0.646810  0.127020  0.138140  0.011414
    C   C5   0.701560  0.128230  0.233960  0.008571
    C   C6   0.811060  0.130650  0.243700  -0.142097
    C   C7   0.811030  0.130650  0.061790  -0.203976
    C   C8   0.701540  0.128230  0.052060  0.227870
    O   O1   0.705810  0.128310  0.415270  -0.263420
    C   C9   0.652250  0.127120  0.504500  0.024374
    H   H1   0.594540  0.198240  0.500650  0.045037
    H   H2   0.710990  0.128410  0.570940  0.063864
    H   H3   0.612810  0.053920  0.515450  0.033085
    O   O2   0.642570  0.126940  0.956840  -0.254493
    C   C10  0.696130  0.128130  0.867600  0.032670
    H   H4   0.637390  0.126830  0.801170  0.046599
    H   H5   0.753830  0.057000  0.871450  0.040530
    H   H6   0.735560  0.201330  0.856660  0.033134
    H   H7   0.855640  0.131630  0.321720  0.074772
    H   H8   0.492790  0.123620  0.380410  0.115033
    H   H9   0.492720  0.123610  0.050380  0.089817
    H   H10  0.855600  0.131630  0.991690  0.118994
    C   C11  0.982320  0.134440  0.167980  0.606085
    C   C12  0.865790  0.131860  0.157610  -0.076466
    O   O3   0.021410  0.135320  0.084100  -0.509011
    O   O4   0.021430  0.135310  0.258800  -0.465325
    C   C13  0.366060  0.120790  0.204130  0.662597
    C   C14  0.482590  0.123380  0.214490  -0.088088
    O   O5   0.326960  0.119930  0.288000  -0.527353
    O   O6   0.326940  0.119930  0.113300  -0.520958
    C   C15  0.173580  0.600260  0.052060  0.294297
    C   C16  0.171150  0.490770  0.061790  -0.271628
    C   C17  0.171160  0.490750  0.243700  -0.191741
    C   C18  0.173590  0.600240  0.233960  0.008592
    C   C19  0.174800  0.654990  0.138140  0.013446
    C   C20  0.177210  0.764480  0.128400  -0.175489
    C   C21  0.177230  0.764460  0.310310  -0.274351
    C   C22  0.174800  0.654980  0.320050  0.302693
    F   F1   0.174700  0.651640  0.958340  -0.194731
    F   F2   0.173690  0.603600  0.413770  -0.207145
    H   H11  0.178190  0.809060  0.050380  0.123924
    H   H12  0.170170  0.446210  0.991690  0.144726
    H   H13  0.170190  0.446160  0.321720  0.139055
    H   H14  0.178210  0.809040  0.380410  0.151362
    C   C23  0.181020  0.935750  0.204130  0.651964
    C   C24  0.178430  0.819220  0.214490  -0.025677
    O   O7   0.181890  0.974850  0.288000  -0.513720
    O   O8   0.181870  0.974860  0.113300  -0.546122
    C   C25  0.167360  0.319490  0.167980  0.630006
    C   C26  0.169940  0.436010  0.157610  -0.015322
    O   O9   0.166490  0.280390  0.084100  -0.496260
    O   O10  0.166500  0.280380  0.258800  -0.540287
    C   C27  0.245110  0.056420  0.488950  0.176087
    C   C28  0.103300  0.198790  0.463070  0.169651
    C   C29  0.103290  0.198800  0.568080  -0.170968
    C   C30  0.174190  0.127620  0.633540  0.047832
    C   C31  0.245100  0.056430  0.593970  -0.212638
    C   C32  0.032380  0.269980  0.607650  0.267130
    C   C33  0.032370  0.269990  0.712680  0.230316
    C   C34  0.103270  0.198810  0.778130  -0.142080
    C   C35  0.174180  0.127620  0.738560  0.048208
    C   C36  0.245080  0.056440  0.804020  -0.248868
    C   C37  0.316000  0.985250  0.764450  0.361506
    C   C38  0.316000  0.985250  0.659430  0.314960
    C   C39  0.103270  0.198810  0.883150  0.144155
    C   C40  0.245080  0.056440  0.909050  0.223798
    N   N1   0.392450  0.914710  0.830640  -0.935561
    H   H15  0.414320  0.837570  0.816020  0.386121
    H   H16  0.433450  0.941610  0.892850  0.372263
    N   N2   0.392460  0.914720  0.619990  -0.942419
    H   H17  0.414660  0.837670  0.652880  0.390776
    H   H18  0.433420  0.941680  0.560290  0.374703
    N   N3   0.957750  0.342450  0.751580  -0.797817
    H   H19  0.917030  0.320750  0.813150  0.347370
    H   H20  0.936910  0.418040  0.714300  0.330473
    N   N4   0.957030  0.341720  0.541910  -0.779009
    H   H21  0.881560  0.362950  0.561680  0.327481
    H   H22  0.978990  0.382270  0.476910  0.336359
    H   H23  0.302810  0.998470  0.962330  0.087572
    H   H24  0.302850  0.998470  0.456730  0.088332
    H   H25  0.045580  0.256750  0.409780  0.084208
    H   H26  0.045530  0.256770  0.915370  0.078185
    N   N5   0.174170  0.127630  0.948610  -0.256971
    N   N6   0.174210  0.127610  0.423490  -0.234692
