# Generated by REPEAT Assigner based on pymatgen
data_DB6-cuf_10842
_audit_creation_date              2022-05-24
_audit_creation_method            REPEAT_Assigner
_cell_length_a                    10.654600
_cell_length_b                    16.109300
_cell_length_c                    14.472300
_cell_angle_alpha                 90.008100
_cell_angle_beta                  90.004100
_cell_angle_gamma                 83.976200
_cell_volume                      2470.283064
_symmetry_space_group_name_H-M    P1
_symmetry_Int_Tables_number       1
loop_
    _symmetry_equiv_pos_site_id
    _symmetry_equiv_pos_as_xyz
    1  x,y,z
loop_
    _atom_site_type_symbol
    _atom_site_label
    _atom_site_fract_x
    _atom_site_fract_y
    _atom_site_fract_z
    _atom_type_partial_charge
    Cu  Cu1  0.142840  0.171120  0.080460  0.770092
    Cu  Cu2  0.142860  0.171130  0.262210  0.767872
    C   C1   0.708350  0.172270  0.255110  0.477939
    C   C2   0.577360  0.169980  0.255110  -0.304403
    C   C3   0.577360  0.169970  0.087560  0.472448
    C   C4   0.708350  0.172270  0.087560  -0.308609
    N   N1   0.775240  0.174090  0.340620  -0.899242
    H   H1   0.872920  0.175800  0.341660  0.390580
    H   H2   0.727530  0.173260  0.403640  0.360823
    N   N2   0.509970  0.171160  0.002050  -0.890162
    H   H3   0.411750  0.172630  0.001500  0.382948
    H   H4   0.555590  0.184410  0.940760  0.356217
    H   H5   0.524050  0.169060  0.323330  0.165941
    H   H6   0.761660  0.173200  0.019340  0.170464
    C   C5   0.913250  0.175870  0.171340  0.644577
    C   C6   0.773840  0.173420  0.171340  -0.193489
    O   O1   0.960020  0.176680  0.090880  -0.495780
    O   O2   0.960040  0.176690  0.251800  -0.485166
    C   C7   0.372450  0.166380  0.171330  0.638237
    C   C8   0.511860  0.168830  0.171330  -0.191461
    O   O3   0.325680  0.165560  0.251790  -0.492858
    O   O4   0.325660  0.165550  0.090880  -0.475965
    C   C9   0.143990  0.714480  0.087560  0.446324
    C   C10  0.141700  0.627740  0.087570  -0.338002
    C   C11  0.141710  0.627770  0.255120  0.442389
    C   C12  0.144010  0.714500  0.255110  -0.334165
    C   C13  0.145150  0.757860  0.171330  -0.054923
    C   C14  0.140550  0.584390  0.171340  -0.050348
    C   C15  0.138070  0.490350  0.171350  0.085954
    C   C16  0.147630  0.851900  0.171330  0.087224
    N   N3   0.140600  0.585520  0.342420  -0.931857
    H   H7   0.138890  0.521090  0.347880  0.385564
    H   H8   0.141500  0.619040  0.404200  0.378526
    N   N4   0.145110  0.756730  0.000260  -0.932389
    H   H9   0.146820  0.821160  0.994800  0.387845
    H   H10  0.144210  0.723210  0.938480  0.378578
    H   H11  0.140770  0.592440  0.019350  0.186453
    H   H12  0.144950  0.749820  0.323340  0.187318
    C   C17  0.152070  0.019170  0.171330  0.805465
    C   C18  0.149620  0.926860  0.171330  -0.352663
    O   O5   0.152900  0.050150  0.251790  -0.554647
    O   O6   0.152880  0.050140  0.090870  -0.564262
    C   C19  0.133630  0.323070  0.171350  0.804218
    C   C20  0.136080  0.415380  0.171350  -0.351629
    O   O7   0.132810  0.292090  0.090890  -0.557791
    O   O8   0.132810  0.292100  0.251800  -0.563064
    C   C21  0.142850  0.171130  0.578540  -0.191420
    C   C22  0.246150  0.103500  0.617740  0.275005
    C   C23  0.245880  0.103250  0.724820  0.142397
    C   C24  0.142850  0.171120  0.764130  -0.097186
    C   C25  0.011720  0.151640  0.725240  0.173785
    C   C26  0.012330  0.151160  0.618120  0.255937
    C   C27  0.169510  0.258430  0.618040  0.269982
    C   C28  0.172480  0.257860  0.725170  0.178605
    C   C29  0.142830  0.171110  0.869020  0.212267
    C   C30  0.142860  0.171130  0.473650  0.209537
    F   F1   0.227040  0.025180  0.584430  -0.225897
    F   F2   0.916360  0.208080  0.584680  -0.227251
    F   F3   0.288930  0.276960  0.757200  -0.223683
    F   F4   0.225500  0.024940  0.758000  -0.211286
    F   F5   0.282730  0.280630  0.583690  -0.229504
    F   F6   0.916980  0.209920  0.758180  -0.223006
    H   H13  0.343340  0.114930  0.751120  0.095309
    H   H14  0.343940  0.114990  0.591990  0.070087
    H   H15  0.988890  0.087470  0.593120  0.067952
    H   H16  0.987710  0.088670  0.752060  0.093540
    H   H17  0.102150  0.310590  0.751920  0.090274
    H   H18  0.094180  0.308770  0.592690  0.071314
    N   N5   0.142830  0.171100  0.952630  -0.216111
    N   N6   0.142870  0.171140  0.390040  -0.211766
