# Generated by REPEAT Assigner based on pymatgen
data_DB6-cuf_8040
_audit_creation_date              2022-05-24
_audit_creation_method            REPEAT_Assigner
_cell_length_a                    12.811400
_cell_length_b                    19.188900
_cell_length_c                    14.421500
_cell_angle_alpha                 90.002200
_cell_angle_beta                  95.438600
_cell_angle_gamma                 83.594000
_cell_volume                      3507.138203
_symmetry_space_group_name_H-M    P1
_symmetry_Int_Tables_number       1
loop_
    _symmetry_equiv_pos_site_id
    _symmetry_equiv_pos_as_xyz
    1  x,y,z
loop_
    _atom_site_type_symbol
    _atom_site_label
    _atom_site_fract_x
    _atom_site_fract_y
    _atom_site_fract_z
    _atom_type_partial_charge
    Cu  Cu1  0.144910  0.176820  0.074690  0.777397
    Cu  Cu2  0.144940  0.176830  0.257080  0.869369
    C   C1   0.617580  0.176440  0.289690  0.483153
    C   C2   0.508110  0.174820  0.280490  -0.347003
    C   C3   0.508080  0.174810  0.112340  -0.242935
    C   C4   0.617550  0.176420  0.121540  0.017811
    C   C5   0.672300  0.177240  0.210220  -0.041214
    C   C6   0.781770  0.178850  0.219420  -0.208207
    C   C7   0.781740  0.178830  0.051280  -0.299583
    C   C8   0.672270  0.177220  0.042070  0.438652
    N   N1   0.668330  0.179920  0.382600  -0.927456
    H   H1   0.737940  0.202670  0.398020  0.351703
    H   H2   0.628660  0.168190  0.439660  0.381928
    N   N2   0.620430  0.179130  0.949070  -0.943143
    H   H3   0.664580  0.168630  0.892390  0.392329
    H   H4   0.542080  0.199750  0.932910  0.355154
    H   H5   0.826340  0.179510  0.291620  0.143534
    H   H6   0.463560  0.174180  0.345200  0.164895
    H   H7   0.463490  0.174150  0.040140  0.147170
    H   H8   0.826300  0.179470  0.986560  0.134535
    C   C9   0.953010  0.181360  0.149740  0.694178
    C   C10  0.836500  0.179650  0.139940  -0.056714
    O   O1   0.992090  0.181940  0.072290  -0.568270
    O   O2   0.992110  0.181950  0.233770  -0.563047
    C   C11  0.336840  0.172290  0.182020  0.683375
    C   C12  0.453350  0.174010  0.191820  -0.022425
    O   O3   0.297760  0.171720  0.259470  -0.546982
    O   O4   0.297740  0.171700  0.097990  -0.571671
    C   C13  0.150680  0.935270  0.250450  -0.207797
    C   C14  0.149050  0.862440  0.250310  0.408182
    C   C15  0.148240  0.826030  0.166170  -0.532182
    C   C16  0.149020  0.862450  0.082160  -0.171175
    C   C17  0.150640  0.935280  0.082300  0.391508
    N   N3   0.205430  0.706650  0.108400  -0.362993
    N   N4   0.203900  0.637470  0.108270  -0.373727
    C   C18  0.143380  0.606590  0.165740  0.993731
    N   N5   0.084460  0.647520  0.223360  -0.360575
    N   N6   0.085990  0.716710  0.223490  -0.355437
    C   C19  0.146490  0.747050  0.166010  0.997591
    C   C20  0.140830  0.491210  0.249590  0.425875
    C   C21  0.139200  0.418380  0.249450  -0.255051
    C   C22  0.139180  0.418380  0.081300  0.287282
    C   C23  0.140800  0.491210  0.081450  -0.113444
    C   C24  0.141630  0.527620  0.165600  -0.550987
    F   F1   0.149650  0.827980  0.332530  -0.202575
    F   F2   0.151190  0.970580  0.000850  -0.228001
    F   F3   0.142960  0.525470  0.331920  -0.208812
    F   F4   0.138190  0.383140  0.999740  -0.189900
    H   H9   0.151340  0.964920  0.318960  0.156975
    H   H10  0.148370  0.832790  0.013660  0.135276
    H   H11  0.138550  0.388730  0.317850  0.163320
    H   H12  0.141450  0.520860  0.013050  0.125483
    C   C25  0.153180  0.049200  0.166590  0.582389
    C   C26  0.151470  0.971690  0.166450  -0.118311
    O   O5   0.153770  0.075220  0.247370  -0.484238
    O   O6   0.153750  0.075200  0.085890  -0.460568
    C   C27  0.136670  0.304450  0.165180  0.522967
    C   C28  0.138380  0.381970  0.165310  -0.028440
    O   O7   0.136090  0.278440  0.084390  -0.424702
    O   O8   0.136100  0.278450  0.245870  -0.503073
    C   C29  0.219540  0.127360  0.703060  0.235121
    C   C30  0.124700  0.113700  0.633250  0.236287
    C   C31  0.144920  0.176820  0.757240  0.070029
    C   C32  0.239770  0.190460  0.642960  0.285117
    C   C33  0.144940  0.176830  0.574520  0.113645
    C   C34  0.050020  0.163120  0.688790  0.238193
    C   C35  0.165160  0.239920  0.698510  0.172300
    C   C36  0.070250  0.226280  0.628720  0.198005
    C   C37  0.144910  0.176810  0.862500  -0.078272
    C   C38  0.144930  0.176840  0.469270  0.085443
    N   N7   0.107350  0.040730  0.589560  -0.745999
    H   H13  0.036190  0.048190  0.547020  0.302825
    H   H14  0.094500  0.009610  0.645890  0.316066
    N   N8   0.951100  0.143540  0.706950  -0.823243
    H   H15  0.921930  0.185350  0.747000  0.338612
    H   H16  0.963500  0.099240  0.750440  0.300674
    N   N9   0.304110  0.069020  0.736630  -0.768102
    H   H17  0.354740  0.094020  0.783400  0.308545
    H   H18  0.266730  0.035250  0.775990  0.315678
    N   N10  0.346050  0.200000  0.609730  -0.767047
    H   H19  0.334490  0.246890  0.571440  0.293264
    H   H20  0.392380  0.209360  0.671110  0.314117
    N   N11  0.191510  0.303000  0.728440  -0.778776
    H   H21  0.198590  0.335370  0.671620  0.274448
    H   H22  0.125170  0.324500  0.759810  0.322600
    N   N12  0.993110  0.274480  0.579980  -0.676091
    H   H23  0.957780  0.300750  0.634420  0.254613
    H   H24  0.031410  0.311060  0.546250  0.265428
    N   N13  0.144910  0.176810  0.946400  -0.122995
    N   N14  0.144940  0.176840  0.385360  -0.235607
