# Generated by REPEAT Assigner based on pymatgen
data_DB6-cuf_1329
_audit_creation_date              2022-05-24
_audit_creation_method            REPEAT_Assigner
_cell_length_a                    15.944500
_cell_length_b                    14.853500
_cell_length_c                    13.330400
_cell_angle_alpha                 89.998800
_cell_angle_beta                  90.010000
_cell_angle_gamma                 83.559000
_cell_volume                      3137.132637
_symmetry_space_group_name_H-M    P1
_symmetry_Int_Tables_number       1
loop_
    _symmetry_equiv_pos_site_id
    _symmetry_equiv_pos_as_xyz
    1  x,y,z
loop_
    _atom_site_type_symbol
    _atom_site_label
    _atom_site_fract_x
    _atom_site_fract_y
    _atom_site_fract_z
    _atom_type_partial_charge
    Cu  Cu1  0.166070  0.212760  0.011810  0.733311
    Cu  Cu2  0.166090  0.212750  0.209120  0.656423
    C   C1   0.693950  0.213290  0.015450  0.195375
    C   C2   0.647130  0.137940  0.062940  0.348919
    C   C3   0.748540  0.214310  0.110460  0.083255
    C   C4   0.629210  0.286480  0.062960  0.328828
    C   C5   0.583620  0.211190  0.110470  0.038171
    C   C6   0.702960  0.138930  0.157940  0.191351
    C   C7   0.685030  0.287540  0.157950  0.189544
    C   C8   0.638240  0.212170  0.205510  0.257489
    C   C9   0.843540  0.216110  0.110450  -0.177032
    C   C10  0.488620  0.209380  0.110480  -0.004863
    N   N1   0.618910  0.055240  0.004150  -0.805249
    H   H1   0.590600  0.016060  0.056730  0.303523
    H   H2   0.675380  0.017750  0.982550  0.315116
    N   N2   0.736870  0.056730  0.202350  -0.822474
    H   H3   0.772600  0.079270  0.261020  0.332374
    H   H4   0.779390  0.022440  0.152020  0.274957
    N   N3   0.718070  0.211530  0.905590  -0.759822
    H   H5   0.749570  0.269100  0.897190  0.300869
    H   H6   0.763300  0.155430  0.897120  0.280283
    N   N4   0.581740  0.363390  0.004230  -0.804610
    H   H7   0.543480  0.400820  0.056510  0.295647
    H   H8   0.628920  0.403270  0.983600  0.311077
    N   N5   0.700600  0.366190  0.201530  -0.802114
    H   H9   0.644440  0.401170  0.228010  0.267535
    H   H10  0.736600  0.345020  0.264470  0.304365
    N   N6   0.600470  0.208590  0.300920  -0.724819
    H   H11  0.651960  0.212350  0.348630  0.260940
    H   H12  0.559850  0.268100  0.311490  0.258995
    C   C11  0.012520  0.219340  0.110450  0.938983
    C   C12  0.919270  0.217550  0.110440  -0.315239
    O   O1   0.043800  0.219940  0.023110  -0.621565
    O   O2   0.043820  0.219930  0.197800  -0.597410
    C   C13  0.319640  0.206170  0.110480  0.936303
    C   C14  0.412890  0.207950  0.110490  -0.378088
    O   O3   0.288360  0.205570  0.197820  -0.589169
    O   O4   0.288340  0.205570  0.023130  -0.589507
    C   C15  0.162750  0.524680  0.201420  -0.148493
    C   C16  0.162730  0.524690  0.019520  -0.140696
    C   C17  0.164400  0.618720  0.019520  0.103461
    C   C18  0.165240  0.665730  0.110470  -0.124663
    C   C19  0.164420  0.618720  0.201420  0.105010
    C   C20  0.165220  0.665740  0.928560  0.113201
    C   C21  0.166890  0.759770  0.928550  0.141591
    C   C22  0.167740  0.806790  0.019510  0.072253
    C   C23  0.166910  0.759770  0.110460  -0.090408
    C   C24  0.167760  0.806790  0.201420  0.080988
    C   C25  0.166940  0.759770  0.292380  0.131452
    C   C26  0.165270  0.665740  0.292370  0.115775
    C   C27  0.169410  0.900830  0.019510  -0.124449
    C   C28  0.169430  0.900830  0.201410  -0.129184
    O   O5   0.166960  0.807430  0.383380  -0.283096
    C   C29  0.091010  0.809080  0.440910  0.030372
    H   H13  0.065080  0.880600  0.453810  0.037918
    H   H14  0.105820  0.776630  0.514730  0.056166
    H   H15  0.041490  0.773890  0.403320  0.037190
    O   O6   0.165250  0.618050  0.383370  -0.280767
    C   C30  0.241200  0.616470  0.440920  0.023287
    H   H16  0.267140  0.544950  0.453820  0.045811
    H   H17  0.226470  0.648840  0.514730  0.059034
    H   H18  0.290720  0.651600  0.403340  0.037467
    O   O7   0.166910  0.807460  0.837560  -0.284886
    C   C31  0.090950  0.809040  0.780010  0.020710
    H   H19  0.105740  0.776600  0.706200  0.062205
    H   H20  0.065010  0.880560  0.767110  0.041537
    H   H21  0.041430  0.773920  0.817590  0.035662
    O   O8   0.165200  0.618080  0.837550  -0.284793
    C   C32  0.241140  0.616440  0.780020  0.042881
    H   H22  0.267080  0.544920  0.767120  0.041570
    H   H23  0.290670  0.651630  0.817610  0.037381
    H   H24  0.226340  0.648890  0.706200  0.047956
    H   H25  0.170110  0.939100  0.275480  0.112689
    H   H26  0.162080  0.486390  0.275480  0.115593
    H   H27  0.162050  0.486410  0.945470  0.116582
    H   H28  0.170080  0.939110  0.945450  0.112496
    C   C33  0.172030  0.047920  0.110460  0.595523
    C   C34  0.170260  0.947840  0.110460  -0.083062
    O   O9   0.172630  0.081500  0.197810  -0.498266
    O   O10  0.172620  0.081510  0.023110  -0.503613
    C   C35  0.160130  0.377580  0.110470  0.576440
    C   C36  0.161900  0.477660  0.110470  -0.069928
    O   O11  0.159540  0.344000  0.023120  -0.489750
    O   O12  0.159530  0.343990  0.197820  -0.479034
    C   C37  0.223010  0.151330  0.400440  0.051510
    C   C38  0.109170  0.274150  0.400400  0.013706
    C   C39  0.109160  0.274160  0.505420  -0.063800
    C   C40  0.166080  0.212750  0.557950  0.023716
    C   C41  0.223010  0.151340  0.505460  -0.087661
    C   C42  0.052240  0.335560  0.557910  0.166897
    C   C43  0.052230  0.335570  0.662940  0.180573
    C   C44  0.109150  0.274170  0.715470  -0.084679
    C   C45  0.166080  0.212750  0.662980  0.033968
    C   C46  0.222990  0.151350  0.715510  -0.068650
    C   C47  0.279930  0.089940  0.663020  0.165532
    C   C48  0.279930  0.089930  0.558000  0.197669
    C   C49  0.109150  0.274170  0.820490  0.043822
    C   C50  0.222990  0.151350  0.820540  0.038342
    F   F1   0.996510  0.395700  0.508400  -0.152650
    F   F2   0.996490  0.395690  0.712440  -0.154898
    F   F3   0.335650  0.029800  0.712540  -0.148937
    F   F4   0.335670  0.029810  0.508490  -0.158054
    H   H29  0.269340  0.101340  0.863300  0.150606
    H   H30  0.269370  0.101340  0.357700  0.142967
    H   H31  0.062830  0.324150  0.357630  0.151620
    H   H32  0.062790  0.324170  0.863230  0.140749
    N   N7   0.166060  0.212760  0.873030  -0.077812
    N   N8   0.166100  0.212740  0.347900  -0.051326
