# Generated by REPEAT Assigner based on pymatgen
data_DB6-cuf_10229
_audit_creation_date              2022-05-24
_audit_creation_method            REPEAT_Assigner
_cell_length_a                    15.944500
_cell_length_b                    12.811400
_cell_length_c                    13.448300
_cell_angle_alpha                 84.567000
_cell_angle_beta                  90.012900
_cell_angle_gamma                 83.768400
_cell_volume                      2718.449408
_symmetry_space_group_name_H-M    P1
_symmetry_Int_Tables_number       1
loop_
    _symmetry_equiv_pos_site_id
    _symmetry_equiv_pos_as_xyz
    1  x,y,z
loop_
    _atom_site_type_symbol
    _atom_site_label
    _atom_site_fract_x
    _atom_site_fract_y
    _atom_site_fract_z
    _atom_type_partial_charge
    Cu  Cu1  0.158450  0.144030  0.086480  0.676680
    Cu  Cu2  0.158470  0.144020  0.282070  0.657241
    C   C1   0.686330  0.144650  0.090040  0.173251
    C   C2   0.639290  0.056920  0.145020  0.153511
    C   C3   0.740930  0.145840  0.184110  0.355487
    C   C4   0.621800  0.229860  0.129450  0.171965
    C   C5   0.576000  0.142210  0.184440  0.361038
    C   C6   0.695130  0.058080  0.239090  0.186826
    C   C7   0.677630  0.231090  0.223490  0.160605
    C   C8   0.630620  0.143350  0.278540  0.158409
    C   C9   0.835940  0.147940  0.183910  -0.305013
    C   C10  0.481000  0.140100  0.184650  -0.297605
    F   F1   0.618480  0.967640  0.104780  -0.214806
    F   F2   0.583140  0.317890  0.073270  -0.214500
    F   F3   0.600910  0.142720  0.375120  -0.215376
    F   F4   0.716020  0.145290  0.993440  -0.221381
    F   F5   0.698380  0.320440  0.263700  -0.215424
    F   F6   0.733870  0.970040  0.295230  -0.217133
    C   C11  0.004920  0.151690  0.183570  0.790820
    C   C12  0.911660  0.149620  0.183750  -0.141553
    O   O1   0.036200  0.152390  0.096930  -0.541277
    O   O2   0.036220  0.152380  0.270100  -0.539562
    C   C13  0.312010  0.136360  0.184980  0.804619
    C   C14  0.405260  0.138430  0.184800  -0.149457
    O   O3   0.280720  0.135660  0.271620  -0.552301
    O   O4   0.280700  0.135670  0.098460  -0.561223
    C   C15  0.157970  0.616670  0.051510  0.299834
    C   C16  0.156030  0.507190  0.061380  -0.286874
    C   C17  0.156040  0.507170  0.241690  -0.193867
    C   C18  0.157980  0.616650  0.231820  -0.003422
    C   C19  0.158950  0.671400  0.136730  0.026028
    C   C20  0.160880  0.780880  0.126860  -0.203028
    C   C21  0.160900  0.780860  0.307170  -0.270721
    C   C22  0.158960  0.671380  0.317040  0.320532
    F   F7   0.158860  0.668040  0.958510  -0.192809
    F   F8   0.158070  0.620010  0.410040  -0.203647
    H   H1   0.161660  0.825450  0.049430  0.134582
    H   H2   0.155240  0.462630  0.991980  0.148904
    H   H3   0.155270  0.462590  0.319110  0.136911
    H   H4   0.161690  0.825430  0.376570  0.132649
    C   C23  0.163930  0.952130  0.201580  0.544711
    C   C24  0.161860  0.835610  0.212090  0.017621
    O   O5   0.164630  0.991230  0.284640  -0.439992
    O   O6   0.164610  0.991230  0.111470  -0.485295
    C   C25  0.153000  0.335920  0.166970  0.529372
    C   C26  0.155060  0.452440  0.156460  0.016406
    O   O7   0.152300  0.296820  0.083910  -0.422594
    O   O8   0.152310  0.296820  0.257080  -0.466289
    C   C27  0.101700  0.215520  0.890400  0.404578
    C   C28  0.101710  0.215520  0.786300  -0.371106
    C   C29  0.158460  0.144030  0.740710  0.057463
    C   C30  0.215200  0.072540  0.799240  0.216605
    C   C31  0.215190  0.072540  0.903340  -0.189416
    C   C32  0.215210  0.072530  0.582260  0.190388
    C   C33  0.215220  0.072530  0.478150  -0.182487
    C   C34  0.101740  0.215510  0.465210  0.426790
    C   C35  0.101730  0.215520  0.569320  -0.381266
    C   C36  0.158470  0.144020  0.627840  0.062874
    N   N1   0.043440  0.287810  0.405000  -0.743365
    H   H5   0.043360  0.288650  0.327220  0.331818
    H   H6   0.999810  0.340880  0.437530  0.346757
    N   N2   0.044360  0.288950  0.937450  -0.730200
    H   H7   0.043640  0.289110  0.015070  0.324137
    H   H8   0.002210  0.343850  0.895160  0.339854
    N   N3   0.235280  0.966380  0.627370  -0.597386
    H   H9   0.193760  0.931700  0.677260  0.286253
    H   H10  0.285030  0.916800  0.600930  0.294171
    N   N4   0.300020  0.046530  0.766060  -0.647248
    H   H11  0.339270  0.983960  0.802720  0.303734
    H   H12  0.328150  0.098080  0.714720  0.302947
    H   H13  0.055520  0.273750  0.738660  0.172348
    H   H14  0.055520  0.273730  0.606430  0.171870
    H   H15  0.261430  0.014310  0.441050  0.181028
    H   H16  0.261390  0.014320  0.950980  0.192148
    N   N5   0.158440  0.144030  0.948920  -0.083544
    N   N6   0.158490  0.144020  0.419630  -0.082601
