# Generated by REPEAT Assigner based on pymatgen
data_DB6-cuf_5159
_audit_creation_date              2022-05-24
_audit_creation_method            REPEAT_Assigner
_cell_length_a                    14.971500
_cell_length_b                    17.019300
_cell_length_c                    9.130310
_cell_angle_alpha                 86.122000
_cell_angle_beta                  90.003800
_cell_angle_gamma                 83.503300
_cell_volume                      2306.141554
_symmetry_space_group_name_H-M    P1
_symmetry_Int_Tables_number       1
loop_
    _symmetry_equiv_pos_site_id
    _symmetry_equiv_pos_as_xyz
    1  x,y,z
loop_
    _atom_site_type_symbol
    _atom_site_label
    _atom_site_fract_x
    _atom_site_fract_y
    _atom_site_fract_z
    _atom_type_partial_charge
    Cu  Cu1  0.176900  0.239420  0.927830  0.662838
    Cu  Cu2  0.176920  0.239420  0.215910  0.533527
    C   C1   0.867440  0.242590  0.204270  0.520561
    C   C2   0.774140  0.241040  0.204460  -0.413886
    C   C3   0.727490  0.240260  0.071770  0.026655
    C   C4   0.774140  0.241050  0.938870  0.279667
    C   C5   0.867430  0.242600  0.938690  -0.279372
    C   C6   0.579680  0.237810  0.939280  0.280460
    C   C7   0.486380  0.236250  0.939470  -0.320397
    C   C8   0.486390  0.236240  0.205050  0.436660
    C   C9   0.579690  0.237800  0.204860  -0.393716
    C   C10  0.626330  0.238580  0.071970  0.047598
    N   N1   0.438390  0.234790  0.340590  -0.872372
    H   H1   0.368690  0.234050  0.341560  0.300973
    H   H2   0.472010  0.234280  0.440970  0.352264
    N   N2   0.915470  0.244050  0.339390  -0.960764
    H   H3   0.985100  0.244790  0.340270  0.377019
    H   H4   0.881870  0.244500  0.439660  0.370270
    N   N3   0.618310  0.193000  0.822200  -0.625960
    H   H5   0.667530  0.144920  0.843920  0.261851
    H   H6   0.589480  0.199890  0.717180  0.271054
    N   N4   0.735480  0.285850  0.810490  -0.627272
    H   H7   0.764360  0.278960  0.707200  0.267373
    H   H8   0.686330  0.333930  0.820090  0.262497
    H   H9   0.736170  0.240410  0.312670  0.169668
    H   H10  0.617670  0.238420  0.312910  0.160242
    H   H11  0.448400  0.235620  0.831410  0.166490
    H   H12  0.905400  0.243230  0.830480  0.147618
    C   C11  0.013370  0.245020  0.071170  0.637303
    C   C12  0.914080  0.243370  0.071390  -0.240779
    O   O1   0.046680  0.245580  0.943570  -0.467831
    O   O2   0.046700  0.245570  0.198630  -0.404256
    C   C13  0.340450  0.233820  0.072560  0.566340
    C   C14  0.439740  0.235470  0.072350  -0.166113
    O   O3   0.307140  0.233260  0.200170  -0.309550
    O   O4   0.307120  0.233270  0.945100  -0.474281
    C   C15  0.181190  0.966490  0.973490  -0.134670
    C   C16  0.179640  0.884210  0.983880  0.128735
    C   C17  0.178870  0.843070  0.121860  0.098260
    C   C18  0.179660  0.884220  0.249460  -0.350995
    C   C19  0.181220  0.966500  0.239080  0.325003
    C   C20  0.174190  0.594630  0.159860  0.122560
    C   C21  0.172630  0.512350  0.170240  -0.127698
    C   C22  0.172610  0.512340  0.904660  0.274917
    C   C23  0.174160  0.594630  0.894280  -0.343352
    C   C24  0.174950  0.635770  0.021890  0.107957
    C   C25  0.177290  0.758960  0.132480  -0.100257
    C   C26  0.176540  0.719870  0.011270  -0.108751
    O   O5   0.182450  0.011230  0.364060  -0.184336
    C   C27  0.183250  0.971260  0.506770  -0.119639
    H   H13  0.121330  0.941600  0.523990  0.067293
    H   H14  0.184640  0.015630  0.590000  0.100730
    H   H15  0.244410  0.928040  0.522620  0.065312
    O   O6   0.206640  0.849550  0.853460  -0.329110
    C   C28  0.301930  0.837470  0.835150  0.144800
    H   H16  0.316940  0.808300  0.731600  0.032833
    H   H17  0.330710  0.895020  0.828010  0.004958
    H   H18  0.334210  0.798550  0.927460  0.000739
    O   O7   0.171390  0.467320  0.780180  -0.135655
    C   C29  0.170720  0.507100  0.637280  -0.100968
    H   H19  0.109560  0.550320  0.621210  0.068216
    H   H20  0.169330  0.462550  0.554290  0.099197
    H   H21  0.232580  0.536770  0.619950  0.052419
    O   O8   0.147140  0.629540  0.290170  -0.326325
    C   C30  0.051850  0.641560  0.308370  0.132511
    H   H22  0.019570  0.680540  0.216060  0.004802
    H   H23  0.023080  0.584070  0.315510  0.008492
    H   H24  0.036780  0.670800  0.411910  0.032108
    H   H25  0.181800  0.999980  0.861140  0.145132
    H   H26  0.174780  0.628120  0.781930  0.155240
    H   H27  0.172010  0.478860  0.282610  0.139617
    H   H28  0.179050  0.850720  0.361810  0.156963
    H   H29  0.177170  0.753370  0.898920  0.118898
    H   H30  0.176660  0.725460  0.244830  0.121209
    C   C31  0.183630  0.095200  0.090050  0.609906
    C   C32  0.181970  0.007630  0.101090  -0.224280
    O   O9   0.184190  0.124590  0.213870  -0.476881
    O   O10  0.184170  0.124590  0.958810  -0.504322
    C   C33  0.170190  0.383630  0.053690  0.626139
    C   C34  0.171850  0.471200  0.042650  -0.205669
    O   O11  0.169620  0.354250  0.929860  -0.496193
    O   O12  0.169650  0.354250  0.184920  -0.536729
    C   C35  0.116150  0.293090  0.641750  0.298476
    C   C36  0.116160  0.293090  0.488410  -0.053499
    C   C37  0.237680  0.185750  0.502000  0.388997
    C   C38  0.237670  0.185750  0.655330  -0.195895
    N   N5   0.054580  0.348270  0.713210  -0.673323
    H   H31  0.053820  0.348940  0.827470  0.339534
    H   H32  0.008880  0.388640  0.652250  0.282111
    N   N6   0.301400  0.132460  0.430410  -0.542230
    H   H33  0.304090  0.134110  0.315970  0.276280
    H   H34  0.354760  0.101040  0.490680  0.253319
    H   H35  0.066700  0.336800  0.420480  0.134240
    H   H36  0.287140  0.142040  0.723270  0.156333
    N   N7   0.176890  0.239420  0.725200  -0.125804
    N   N8   0.176930  0.239420  0.418530  -0.220035
