# Generated by REPEAT Assigner based on pymatgen
data_DB6-cuf_7807
_audit_creation_date              2022-05-24
_audit_creation_method            REPEAT_Assigner
_cell_length_a                    12.811400
_cell_length_b                    16.109300
_cell_length_c                    14.184900
_cell_angle_alpha                 76.813900
_cell_angle_beta                  108.433000
_cell_angle_gamma                 83.755900
_cell_volume                      2651.730447
_symmetry_space_group_name_H-M    P1
_symmetry_Int_Tables_number       1
loop_
    _symmetry_equiv_pos_site_id
    _symmetry_equiv_pos_as_xyz
    1  x,y,z
loop_
    _atom_site_type_symbol
    _atom_site_label
    _atom_site_fract_x
    _atom_site_fract_y
    _atom_site_fract_z
    _atom_type_partial_charge
    Cu  Cu1  0.096620  0.182280  0.103310  0.615046
    Cu  Cu2  0.154360  0.136590  0.305890  0.639170
    C   C1   0.637320  0.127950  0.342110  0.290631
    C   C2   0.524930  0.128330  0.331890  -0.272839
    C   C3   0.471690  0.170450  0.145140  -0.199061
    C   C4   0.584080  0.170060  0.155360  -0.007579
    C   C5   0.666890  0.148810  0.253850  0.045129
    C   C6   0.779290  0.148420  0.264070  -0.249455
    C   C7   0.726050  0.190540  0.077310  -0.300884
    C   C8   0.613660  0.190930  0.067090  0.331591
    F   F1   0.716140  0.107120  0.438430  -0.198081
    F   F2   0.534840  0.211760  0.970770  -0.204951
    H   H1   0.846710  0.131120  0.344260  0.152489
    H   H2   0.500860  0.111350  0.403770  0.162118
    H   H3   0.404250  0.187750  0.064950  0.128966
    H   H4   0.750140  0.207530  0.005440  0.163249
    C   C9   0.928480  0.168880  0.186680  0.559163
    C   C10  0.808870  0.169290  0.175800  0.045367
    O   O1   0.943060  0.188970  0.100650  -0.464239
    O   O2   0.994180  0.148520  0.280010  -0.455250
    C   C11  0.322490  0.149990  0.222520  0.563428
    C   C12  0.442110  0.149580  0.233410  0.014438
    O   O3   0.307910  0.129900  0.308550  -0.467002
    O   O4   0.256800  0.170350  0.129190  -0.454943
    C   C13  0.099860  0.723840  0.111320  0.297021
    C   C14  0.097900  0.637150  0.111140  -0.198272
    C   C15  0.151120  0.595040  0.297900  0.293067
    C   C16  0.153090  0.681720  0.298070  -0.198062
    C   C17  0.127460  0.746120  0.204780  -0.085982
    C   C18  0.123520  0.572750  0.204430  -0.086921
    C   C19  0.121390  0.478750  0.204240  0.100778
    C   C20  0.129590  0.840120  0.204970  0.102056
    O   O5   0.176120  0.526890  0.389330  -0.274600
    C   C21  0.204710  0.546760  0.486380  0.029891
    H   H5   0.133920  0.591990  0.488190  0.035956
    H   H6   0.282090  0.574480  0.501670  0.036689
    H   H7   0.221420  0.485750  0.548660  0.074919
    O   O6   0.074860  0.791980  0.019880  -0.276054
    C   C22  0.046270  0.772120  0.922830  0.011103
    H   H8   0.968900  0.744390  0.907530  0.044464
    H   H9   0.117070  0.726890  0.921010  0.036867
    H   H10  0.029560  0.833120  0.860540  0.080282
    H   H11  0.075440  0.619010  0.035030  0.143712
    H   H12  0.175560  0.699860  0.374190  0.141926
    C   C23  0.133400  0.007300  0.205310  0.896058
    C   C24  0.131290  0.915040  0.205120  -0.414670
    O   O7   0.159660  0.018030  0.295060  -0.548263
    O   O8   0.108540  0.058480  0.115700  -0.538981
    C   C25  0.117580  0.311570  0.203890  0.892868
    C   C26  0.119690  0.403830  0.204090  -0.413798
    O   O9   0.091330  0.300840  0.114150  -0.540511
    O   O10  0.142420  0.260390  0.293500  -0.542251
    C   C27  0.314150  0.010090  0.616770  -0.202787
    C   C28  0.283430  0.034420  0.508940  -0.072865
    C   C29  0.137180  0.150180  0.495620  0.290425
    C   C30  0.167900  0.125870  0.603450  -0.031526
    C   C31  0.256390  0.055820  0.664010  0.008523
    C   C32  0.110140  0.171600  0.650690  -0.003609
    C   C33  0.140850  0.147280  0.758510  0.003899
    C   C34  0.229320  0.077230  0.819090  -0.236311
    C   C35  0.287100  0.031500  0.771830  0.345794
    C   C36  0.021650  0.241640  0.590120  -0.230349
    C   C37  0.963880  0.287370  0.637370  0.352814
    C   C38  0.994600  0.263050  0.745190  0.024889
    C   C39  0.083070  0.193010  0.805770  -0.052841
    C   C40  0.936820  0.308780  0.792450  -0.214626
    C   C41  0.967540  0.284460  0.900270  -0.076630
    C   C42  0.113790  0.168690  0.913590  0.293921
    N   N1   0.228230  0.138760  0.982980  -0.555175
    H   H13  0.293940  0.158010  0.960160  0.304927
    H   H14  0.246950  0.109600  0.061730  0.246769
    N   N2   0.873590  0.358680  0.571150  -0.895097
    H   H15  0.804810  0.378110  0.590690  0.363128
    H   H16  0.865580  0.385190  0.494210  0.373322
    N   N3   0.022630  0.179710  0.426290  -0.536973
    H   H17  0.003790  0.208880  0.347540  0.240570
    H   H18  0.957150  0.160190  0.449280  0.283386
    N   N4   0.371140  0.955880  0.837260  -0.875390
    H   H19  0.405880  0.947880  0.916790  0.359655
    H   H20  0.389140  0.901970  0.812040  0.367119
    H   H21  0.254330  0.057430  0.906880  0.114578
    H   H22  0.386200  0.953050  0.666080  0.115214
    H   H23  0.330470  0.997180  0.470480  0.138695
    H   H24  0.996640  0.261430  0.502330  0.110121
    H   H25  0.864780  0.365820  0.743120  0.125353
    H   H26  0.920500  0.321700  0.938730  0.137659
    N   N5   0.056020  0.214420  0.960830  -0.067818
    N   N6   0.194960  0.104450  0.448370  -0.084562
