# Generated by REPEAT Assigner based on pymatgen
data_DB6-cuf_10081
_audit_creation_date              2022-05-24
_audit_creation_method            REPEAT_Assigner
_cell_length_a                    15.995300
_cell_length_b                    10.654600
_cell_length_c                    14.586300
_cell_angle_alpha                 90.001000
_cell_angle_beta                  90.015200
_cell_angle_gamma                 83.983700
_cell_volume                      2472.156791
_symmetry_space_group_name_H-M    P1
_symmetry_Int_Tables_number       1
loop_
    _symmetry_equiv_pos_site_id
    _symmetry_equiv_pos_as_xyz
    1  x,y,z
loop_
    _atom_site_type_symbol
    _atom_site_label
    _atom_site_fract_x
    _atom_site_fract_y
    _atom_site_fract_z
    _atom_type_partial_charge
    Cu  Cu1  0.226820  0.151590  0.015990  0.771118
    Cu  Cu2  0.226850  0.151580  0.196310  0.771551
    C   C1   0.643040  0.149370  0.106160  -0.068219
    C   C2   0.678370  0.150780  0.005710  0.222727
    C   C3   0.775110  0.152860  0.005660  0.233288
    C   C4   0.810630  0.153800  0.106140  -0.117765
    C   C5   0.785290  0.033030  0.156020  0.211855
    C   C6   0.688570  0.030370  0.155380  0.232600
    C   C7   0.669040  0.269030  0.157440  0.228252
    C   C8   0.765640  0.273180  0.155560  0.235635
    C   C9   0.905340  0.156310  0.106140  0.040370
    C   C10  0.548330  0.146860  0.106170  0.007429
    F   F1   0.656680  0.047060  0.957360  -0.246399
    F   F2   0.658980  0.022430  0.244340  -0.243949
    F   F3   0.785710  0.382410  0.112590  -0.244204
    F   F4   0.813520  0.049810  0.957920  -0.248968
    F   F5   0.629080  0.377780  0.118330  -0.249894
    F   F6   0.815440  0.029140  0.245380  -0.246344
    H   H1   0.791840  0.239400  0.966520  0.064446
    H   H2   0.648100  0.236110  0.966280  0.060520
    H   H3   0.673300  0.940190  0.119930  0.067040
    H   H4   0.816780  0.944480  0.121380  0.075164
    H   H5   0.789230  0.281060  0.228870  0.062263
    H   H6   0.646100  0.269240  0.231440  0.059695
    C   C11  0.073800  0.160780  0.106140  0.816801
    C   C12  0.980840  0.158310  0.106130  -0.301116
    O   O1   0.104990  0.161610  0.026310  -0.553949
    O   O2   0.105010  0.161600  0.185970  -0.563626
    C   C13  0.379860  0.142400  0.106160  0.806052
    C   C14  0.472830  0.144870  0.106170  -0.279678
    O   O3   0.348710  0.141200  0.185990  -0.558878
    O   O4   0.348620  0.141940  0.026330  -0.563469
    C   C15  0.227970  0.717080  0.023030  0.491652
    C   C16  0.225660  0.586090  0.023040  -0.301620
    C   C17  0.225700  0.586100  0.189280  0.463519
    C   C18  0.228010  0.717090  0.189270  -0.287987
    N   N1   0.229780  0.783960  0.938190  -0.899699
    H   H7   0.231510  0.881640  0.937160  0.386138
    H   H8   0.228930  0.736240  0.875670  0.348902
    N   N2   0.226910  0.518720  0.274120  -0.872995
    H   H9   0.228390  0.420510  0.274660  0.371716
    H   H10  0.240280  0.564350  0.334930  0.340298
    H   H11  0.224720  0.532770  0.955350  0.168188
    H   H12  0.228960  0.770410  0.256960  0.167982
    C   C19  0.231610  0.921990  0.106150  0.647774
    C   C20  0.229150  0.782580  0.106150  -0.212206
    O   O5   0.232450  0.968770  0.185980  -0.484755
    O   O6   0.232430  0.968770  0.026320  -0.476850
    C   C21  0.222060  0.381190  0.106150  0.629129
    C   C22  0.224520  0.520600  0.106160  -0.191464
    O   O7   0.221210  0.334410  0.026320  -0.480753
    O   O8   0.221250  0.334400  0.185980  -0.464989
    C   C23  0.170520  0.237130  0.654120  0.299887
    C   C24  0.170530  0.237140  0.558140  -0.251530
    C   C25  0.283150  0.066040  0.558190  0.299408
    C   C26  0.283150  0.066040  0.654170  -0.251631
    C   C27  0.226820  0.151590  0.702130  -0.002506
    C   C28  0.226840  0.151590  0.510170  -0.000984
    C   C29  0.226860  0.151590  0.406100  0.198205
    C   C30  0.226810  0.151590  0.806200  0.199859
    F   F7   0.115640  0.320500  0.699840  -0.154857
    F   F8   0.338350  0.982180  0.513220  -0.155184
    H   H13  0.124690  0.306810  0.519060  0.203426
    H   H14  0.329000  0.996370  0.693250  0.203464
    N   N3   0.226800  0.151590  0.889160  -0.206666
    N   N4   0.226860  0.151580  0.323150  -0.203216
