# Generated by REPEAT Assigner based on pymatgen
data_DB6-cuf_10315
_audit_creation_date              2022-05-24
_audit_creation_method            REPEAT_Assigner
_cell_length_a                    14.971500
_cell_length_b                    16.109300
_cell_length_c                    15.500400
_cell_angle_alpha                 92.843400
_cell_angle_beta                  87.174800
_cell_angle_gamma                 83.541000
_cell_volume                      3704.415318
_symmetry_space_group_name_H-M    P1
_symmetry_Int_Tables_number       1
loop_
    _symmetry_equiv_pos_site_id
    _symmetry_equiv_pos_as_xyz
    1  x,y,z
loop_
    _atom_site_type_symbol
    _atom_site_label
    _atom_site_fract_x
    _atom_site_fract_y
    _atom_site_fract_z
    _atom_type_partial_charge
    Cu  Cu1  0.152620  0.154520  0.096680  0.625177
    Cu  Cu2  0.142840  0.163660  0.266840  0.493233
    C   C1   0.833740  0.166640  0.260200  0.344576
    C   C2   0.740440  0.165010  0.260200  -0.318238
    C   C3   0.698310  0.159980  0.181760  0.038072
    C   C4   0.749470  0.156590  0.103330  0.229187
    C   C5   0.842770  0.158230  0.103330  -0.200901
    C   C6   0.555020  0.153170  0.103320  0.220353
    C   C7   0.461720  0.151530  0.103320  -0.181055
    C   C8   0.452690  0.159950  0.260190  0.329386
    C   C9   0.545980  0.161590  0.260200  -0.293492
    C   C10  0.597150  0.158200  0.181760  0.020625
    F   F1   0.874700  0.171960  0.336110  -0.216138
    F   F2   0.716340  0.186740  0.029930  -0.168240
    F   F3   0.596640  0.115130  0.029930  -0.163951
    F   F4   0.403010  0.162800  0.336060  -0.217088
    H   H1   0.698800  0.167780  0.324070  0.175648
    H   H2   0.580290  0.165680  0.324060  0.167186
    H   H3   0.427410  0.147440  0.039450  0.139323
    H   H4   0.884420  0.155460  0.039460  0.148478
    C   C11  0.984190  0.164990  0.181770  0.504349
    C   C12  0.884900  0.163250  0.181770  -0.142173
    O   O1   0.021850  0.161530  0.106440  -0.428615
    O   O2   0.013180  0.169620  0.257100  -0.319539
    C   C13  0.311260  0.153180  0.181750  0.505227
    C   C14  0.410550  0.154920  0.181750  -0.141312
    O   O3   0.273610  0.156640  0.257080  -0.336188
    O   O4   0.282270  0.148560  0.106430  -0.421178
    C   C15  0.153060  0.698230  0.103330  0.298826
    C   C16  0.151420  0.611510  0.103330  -0.202928
    C   C17  0.142400  0.619950  0.260200  0.302592
    C   C18  0.144040  0.706670  0.260200  -0.205975
    C   C19  0.149360  0.745810  0.181760  -0.075492
    C   C20  0.146090  0.572360  0.181760  -0.079967
    C   C21  0.144320  0.478340  0.181770  0.081980
    C   C22  0.151130  0.839840  0.181750  0.071033
    O   O5   0.137080  0.576560  0.337090  -0.284470
    C   C23  0.133190  0.622680  0.418540  0.025984
    H   H5   0.072010  0.668890  0.425660  0.036538
    H   H6   0.195000  0.654050  0.425650  0.041275
    H   H7   0.129290  0.578540  0.470940  0.073029
    O   O6   0.158380  0.741620  0.026440  -0.282574
    C   C24  0.162270  0.695500  0.944990  0.022423
    H   H8   0.100450  0.664130  0.937870  0.040931
    H   H9   0.223450  0.649290  0.937870  0.037348
    H   H10  0.166170  0.739630  0.892590  0.076224
    H   H11  0.154440  0.572780  0.039460  0.145730
    H   H12  0.141030  0.745400  0.324070  0.147011
    C   C25  0.154290  0.007090  0.181750  0.844462
    C   C26  0.152550  0.914790  0.181750  -0.367406
    O   O7   0.150550  0.042110  0.257080  -0.554038
    O   O8   0.159210  0.034020  0.106430  -0.514646
    C   C27  0.141160  0.311080  0.181770  0.869981
    C   C28  0.142910  0.403380  0.181770  -0.386758
    O   O9   0.144910  0.276070  0.106440  -0.556633
    O   O10  0.136240  0.284160  0.257100  -0.522367
    C   C29  0.101420  0.202220  0.931700  -0.140061
    C   C30  0.106660  0.197350  0.841130  0.197720
    C   C31  0.169970  0.138350  0.795860  0.039495
    C   C32  0.228060  0.084220  0.841160  -0.354942
    C   C33  0.222830  0.089090  0.931730  0.427983
    C   C34  0.188810  0.120820  0.522400  0.129071
    C   C35  0.194030  0.115950  0.431820  -0.088857
    C   C36  0.072630  0.229090  0.431800  0.433476
    C   C37  0.067400  0.233950  0.522370  -0.379924
    C   C38  0.125490  0.179820  0.567660  0.087248
    C   C39  0.175320  0.133380  0.703280  -0.063526
    C   C40  0.120150  0.184800  0.660240  -0.111260
    N   N1   0.281760  0.033580  0.978140  -0.752917
    H   H13  0.278830  0.036890  0.045680  0.345387
    H   H14  0.328830  0.988710  0.945280  0.340225
    N   N2   0.022340  0.229510  0.808030  -0.664998
    H   H15  0.987220  0.285490  0.834420  0.292123
    H   H16  0.986530  0.190790  0.770110  0.312424
    N   N3   0.273120  0.088660  0.555490  -0.598122
    H   H17  0.308240  0.032680  0.529100  0.274666
    H   H18  0.308930  0.127380  0.593410  0.295397
    N   N4   0.013690  0.284600  0.385390  -0.704267
    H   H19  0.016670  0.281330  0.317850  0.321056
    H   H20  0.966630  0.329460  0.418250  0.330460
    H   H21  0.049860  0.250260  0.968560  0.161892
    H   H22  0.015850  0.281990  0.559230  0.159221
    H   H23  0.245590  0.067900  0.394960  0.157653
    H   H24  0.279620  0.036180  0.804290  0.157387
    H   H25  0.068600  0.232840  0.697110  0.086446
    H   H26  0.226870  0.085330  0.666410  0.065069
    N   N5   0.159510  0.148090  0.977000  -0.124800
    N   N6   0.135950  0.170080  0.386520  -0.105547
