# Generated by REPEAT Assigner based on pymatgen
data_DB6-cuf_2463
_audit_creation_date              2022-05-24
_audit_creation_method            REPEAT_Assigner
_cell_length_a                    15.625200
_cell_length_b                    19.188900
_cell_length_c                    17.666300
_cell_angle_alpha                 89.998000
_cell_angle_beta                  71.922200
_cell_angle_gamma                 83.711500
_cell_volume                      5001.887331
_symmetry_space_group_name_H-M    P1
_symmetry_Int_Tables_number       1
loop_
    _symmetry_equiv_pos_site_id
    _symmetry_equiv_pos_as_xyz
    1  x,y,z
loop_
    _atom_site_type_symbol
    _atom_site_label
    _atom_site_fract_x
    _atom_site_fract_y
    _atom_site_fract_z
    _atom_type_partial_charge
    Cu  Cu1  0.205780  0.157250  0.053010  0.593177
    Cu  Cu2  0.205790  0.157250  0.201890  0.553587
    C   C1   0.611740  0.155850  0.947380  -0.155741
    C   C2   0.517700  0.154470  0.973210  -0.126637
    C   C3   0.517710  0.154470  0.110450  0.167159
    C   C4   0.611750  0.155860  0.084640  0.053149
    C   C5   0.658750  0.156550  0.003100  -0.027034
    C   C6   0.658770  0.156560  0.140350  -0.028172
    C   C7   0.752790  0.157940  0.114540  -0.042409
    C   C8   0.799810  0.158630  0.033010  -0.221743
    C   C9   0.752780  0.157940  0.977290  0.352544
    C   C10  0.611760  0.155860  0.221890  -0.215693
    C   C11  0.658780  0.156560  0.277610  0.325826
    C   C12  0.752810  0.157950  0.251800  -0.003837
    C   C13  0.799820  0.158640  0.170260  0.050085
    C   C14  0.799830  0.158640  0.307520  -0.161997
    C   C15  0.893860  0.160030  0.281710  -0.127402
    C   C16  0.893850  0.160020  0.144450  0.139358
    N   N1   0.940020  0.198980  0.077470  -0.339939
    H   H1   0.906470  0.243450  0.060460  0.230170
    H   H2   0.010560  0.190970  0.052950  0.090067
    N   N2   0.606880  0.155690  0.360580  -0.879157
    H   H3   0.633800  0.134000  0.403520  0.364208
    H   H4   0.536450  0.167380  0.378790  0.379837
    N   N3   0.471660  0.115200  0.177230  -0.450119
    H   H5   0.401130  0.123160  0.201800  0.159095
    H   H6   0.505360  0.070690  0.193970  0.239752
    N   N4   0.805490  0.152980  0.894270  -0.896521
    H   H7   0.871730  0.166260  0.876300  0.370648
    H   H8   0.785760  0.127660  0.851290  0.369508
    H   H9   0.876370  0.159750  0.011990  0.086735
    H   H10  0.650010  0.156420  0.880980  0.111392
    H   H11  0.479430  0.153900  0.927830  0.101939
    H   H12  0.535200  0.154730  0.242900  0.093373
    H   H13  0.761550  0.158080  0.373910  0.113642
    H   H14  0.932140  0.160600  0.327080  0.105083
    C   C17  0.040940  0.162190  0.172700  0.569369
    C   C18  0.940860  0.160720  0.200170  -0.144762
    O   O1   0.074510  0.162680  0.097570  -0.380058
    O   O2   0.074520  0.162690  0.229390  -0.434759
    C   C19  0.370620  0.152300  0.082200  0.532570
    C   C20  0.470700  0.153780  0.054730  -0.132002
    O   O3   0.337050  0.151810  0.157320  -0.376309
    O   O4   0.337040  0.151810  0.025510  -0.456544
    C   C21  0.210720  0.915680  0.194730  -0.194250
    C   C22  0.209320  0.842850  0.195110  0.407626
    C   C23  0.208630  0.806440  0.126670  -0.532709
    C   C24  0.209300  0.842870  0.057860  -0.153607
    C   C25  0.210690  0.915690  0.057480  0.389471
    N   N5   0.257750  0.686950  0.062100  -0.366866
    N   N6   0.256440  0.617770  0.062460  -0.368056
    C   C26  0.204450  0.587020  0.127800  0.994218
    N   N7   0.153840  0.628060  0.192780  -0.354583
    N   N8   0.155160  0.697250  0.192420  -0.355258
    C   C27  0.207130  0.727470  0.127070  0.997326
    C   C28  0.202260  0.471640  0.197030  0.406222
    C   C29  0.200860  0.398810  0.197410  -0.177395
    C   C30  0.200850  0.398820  0.060150  0.386342
    C   C31  0.202240  0.471650  0.059780  -0.149414
    C   C32  0.202950  0.508050  0.128220  -0.536742
    F   F1   0.209840  0.808380  0.262050  -0.203260
    F   F2   0.211170  0.950990  0.990820  -0.228434
    F   F3   0.204090  0.505890  0.263590  -0.205781
    F   F4   0.200010  0.363590  0.993870  -0.225242
    H   H15  0.211280  0.945320  0.250460  0.137658
    H   H16  0.208750  0.813210  0.002130  0.135911
    H   H17  0.200300  0.369160  0.253450  0.134533
    H   H18  0.202800  0.501300  0.003740  0.132535
    C   C33  0.212870  0.029600  0.125510  0.555669
    C   C34  0.211400  0.952090  0.125920  -0.148026
    O   O5   0.213370  0.055620  0.191280  -0.464192
    O   O6   0.213360  0.055610  0.059460  -0.414441
    C   C35  0.198690  0.284890  0.129380  0.603755
    C   C36  0.200160  0.362400  0.128970  -0.165201
    O   O7   0.198200  0.258880  0.063610  -0.425289
    O   O8   0.198200  0.258880  0.195430  -0.463848
    C   C37  0.267130  0.109750  0.891830  0.014248
    C   C38  0.267130  0.109750  0.812580  0.304230
    C   C39  0.205780  0.157250  0.789790  -0.428172
    C   C40  0.144410  0.204740  0.846260  -0.255936
    C   C41  0.144410  0.204740  0.925510  0.534541
    N   N9   0.194250  0.219020  0.668530  -0.352875
    N   N10  0.194260  0.219020  0.593250  -0.380150
    C   C42  0.205790  0.157260  0.551030  0.958042
    N   N11  0.217320  0.095490  0.586920  -0.346345
    N   N12  0.217320  0.095490  0.662210  -0.362689
    C   C43  0.205780  0.157260  0.703860  0.967424
    C   C44  0.267150  0.109760  0.408640  0.315841
    C   C45  0.267140  0.109750  0.329390  -0.051307
    C   C46  0.144420  0.204760  0.363070  0.470065
    C   C47  0.144430  0.204750  0.442320  -0.205641
    C   C48  0.205790  0.157260  0.465100  -0.432191
    F   F5   0.327870  0.063920  0.758540  -0.182827
    F   F6   0.084800  0.250690  0.980250  -0.143417
    F   F7   0.327870  0.063940  0.429380  -0.195783
    F   F8   0.084850  0.250710  0.341060  -0.152157
    H   H19  0.317090  0.071070  0.910380  0.155805
    H   H20  0.094460  0.243420  0.827700  0.142005
    H   H21  0.317100  0.071070  0.283430  0.168769
    H   H22  0.094470  0.243430  0.488290  0.139252
    N   N13  0.205770  0.157240  0.948290  -0.215144
    N   N14  0.205790  0.157250  0.306610  -0.165698
