# Generated by REPEAT Assigner based on pymatgen
data_DB6-cuf_7372
_audit_creation_date              2022-05-24
_audit_creation_method            REPEAT_Assigner
_cell_length_a                    15.944500
_cell_length_b                    19.188900
_cell_length_c                    13.448300
_cell_angle_alpha                 89.994800
_cell_angle_beta                  90.012900
_cell_angle_gamma                 83.315400
_cell_volume                      4086.635774
_symmetry_space_group_name_H-M    P1
_symmetry_Int_Tables_number       1
loop_
    _symmetry_equiv_pos_site_id
    _symmetry_equiv_pos_as_xyz
    1  x,y,z
loop_
    _atom_site_type_symbol
    _atom_site_label
    _atom_site_fract_x
    _atom_site_fract_y
    _atom_site_fract_z
    _atom_type_partial_charge
    Cu  Cu1  0.182580  0.203910  0.003430  0.565331
    Cu  Cu2  0.182610  0.203900  0.199010  0.618298
    C   C1   0.710460  0.204320  0.007040  0.185438
    C   C2   0.663950  0.145960  0.054120  0.367128
    C   C3   0.765050  0.205120  0.101220  0.089215
    C   C4   0.645430  0.261000  0.054130  0.330985
    C   C5   0.600150  0.202700  0.101220  0.062984
    C   C6   0.719770  0.146730  0.148290  0.183710
    C   C7   0.701250  0.261820  0.148290  0.208261
    C   C8   0.654760  0.203460  0.195430  0.253264
    C   C9   0.860050  0.206510  0.101210  -0.192434
    C   C10  0.505150  0.201300  0.101240  -0.048817
    N   N1   0.636060  0.081920  0.995850  -0.819578
    H   H1   0.607900  0.051580  0.047980  0.301255
    H   H2   0.692670  0.052890  0.974450  0.320138
    N   N2   0.754010  0.083080  0.192320  -0.824639
    H   H3   0.789660  0.100540  0.250470  0.331446
    H   H4   0.796670  0.056520  0.142430  0.276863
    N   N3   0.734590  0.202960  0.898140  -0.759440
    H   H5   0.765850  0.247540  0.889810  0.299229
    H   H6   0.780040  0.159510  0.889750  0.278387
    N   N4   0.597650  0.320570  0.995900  -0.809950
    H   H7   0.559240  0.349550  0.047720  0.291507
    H   H8   0.644670  0.351450  0.975450  0.310950
    N   N5   0.716510  0.322740  0.191470  -0.800477
    H   H9   0.660210  0.349830  0.217720  0.263494
    H   H10  0.752600  0.306340  0.253870  0.298291
    N   N6   0.617010  0.200680  0.290000  -0.730365
    H   H11  0.668490  0.203600  0.337300  0.262931
    H   H12  0.576150  0.246780  0.300480  0.256367
    C   C11  0.029010  0.209000  0.101210  0.853132
    C   C12  0.935770  0.207630  0.101200  -0.284465
    O   O1   0.060290  0.209470  0.014630  -0.560707
    O   O2   0.060310  0.209470  0.187790  -0.540686
    C   C13  0.336190  0.198810  0.101230  0.804931
    C   C14  0.429430  0.200190  0.101240  -0.303636
    O   O3   0.304910  0.198350  0.187820  -0.544096
    O   O4   0.304890  0.198350  0.014650  -0.542687
    C   C15  0.187200  0.962330  0.191390  -0.297776
    C   C16  0.185910  0.889500  0.191390  0.687494
    C   C17  0.185250  0.853100  0.101230  -0.639079
    C   C18  0.185870  0.889520  0.011070  -0.190769
    C   C19  0.187160  0.962350  0.011080  0.520031
    N   N7   0.231020  0.733560  0.034130  -0.381359
    N   N8   0.229790  0.664380  0.034130  -0.390333
    C   C20  0.181360  0.633680  0.101210  0.989765
    N   N9   0.134210  0.674770  0.168310  -0.351546
    N   N10  0.135440  0.743960  0.168310  -0.352945
    C   C21  0.183850  0.774130  0.101220  1.000661
    C   C22  0.179320  0.518290  0.191360  0.682273
    C   C23  0.178020  0.445470  0.191360  -0.283876
    C   C24  0.178000  0.445490  0.011040  0.524239
    C   C25  0.179290  0.518310  0.011050  -0.184204
    C   C26  0.179960  0.554710  0.101210  -0.632298
    N   N11  0.185030  0.999980  0.918380  -0.980800
    H   H13  0.185860  0.054300  0.917410  0.370312
    H   H14  0.184740  0.973540  0.850500  0.369734
    N   N12  0.190340  0.854250  0.284760  -1.114141
    H   H15  0.215800  0.801910  0.291090  0.420772
    H   H16  0.180730  0.882600  0.350940  0.436017
    N   N13  0.184870  0.552500  0.284720  -1.112557
    H   H17  0.211830  0.599240  0.291040  0.420676
    H   H18  0.174360  0.526330  0.350900  0.434101
    N   N14  0.174560  0.408530  0.918290  -0.994628
    H   H19  0.173470  0.354230  0.917330  0.422993
    H   H20  0.175210  0.434930  0.850470  0.366349
    H   H21  0.187740  0.991960  0.264800  0.140840
    H   H22  0.185350  0.859880  0.937670  0.140333
    H   H23  0.177500  0.415810  0.264760  0.135372
    H   H24  0.179810  0.547970  0.937640  0.138866
    C   C27  0.189200  0.076260  0.101230  0.550710
    C   C28  0.187830  0.998750  0.101240  -0.200088
    O   O5   0.189680  0.102260  0.187810  -0.435118
    O   O6   0.189650  0.102270  0.014650  -0.365987
    C   C29  0.175990  0.331560  0.101210  0.624278
    C   C30  0.177360  0.409070  0.101200  -0.227793
    O   O7   0.175520  0.305550  0.014630  -0.408129
    O   O8   0.175540  0.305550  0.187790  -0.441790
    C   C31  0.125410  0.251470  0.813790  0.350708
    C   C32  0.125420  0.251470  0.709680  -0.288047
    C   C33  0.182590  0.203910  0.657660  0.050370
    C   C34  0.239760  0.156350  0.709740  0.178697
    C   C35  0.239750  0.156360  0.813850  -0.046013
    C   C36  0.239780  0.156350  0.492760  0.216641
    C   C37  0.239780  0.156350  0.388660  -0.119178
    C   C38  0.125450  0.251460  0.388600  0.336582
    C   C39  0.125440  0.251460  0.492700  -0.310097
    C   C40  0.182600  0.203910  0.544780  0.062096
    F   F1   0.070380  0.297740  0.864410  -0.125108
    F   F2   0.316570  0.131190  0.673550  -0.145378
    F   F3   0.269950  0.092510  0.529060  -0.156444
    F   F4   0.069860  0.297220  0.337950  -0.116873
    H   H25  0.078880  0.290200  0.667290  0.166901
    H   H26  0.078880  0.290180  0.535060  0.168627
    H   H27  0.286340  0.117620  0.346300  0.190181
    H   H28  0.286300  0.117630  0.856240  0.174593
    N   N15  0.182570  0.203910  0.865860  -0.147237
    N   N16  0.182620  0.203900  0.336580  -0.083180
