# Generated by REPEAT Assigner based on pymatgen
data_DB6-cuf_3113
_audit_creation_date              2022-05-24
_audit_creation_method            REPEAT_Assigner
_cell_length_a                    15.995300
_cell_length_b                    16.109300
_cell_length_c                    14.184900
_cell_angle_alpha                 76.813900
_cell_angle_beta                  103.134000
_cell_angle_gamma                 83.474200
_cell_volume                      3412.415825
_symmetry_space_group_name_H-M    P1
_symmetry_Int_Tables_number       1
loop_
    _symmetry_equiv_pos_site_id
    _symmetry_equiv_pos_as_xyz
    1  x,y,z
loop_
    _atom_site_type_symbol
    _atom_site_label
    _atom_site_fract_x
    _atom_site_fract_y
    _atom_site_fract_z
    _atom_type_partial_charge
    Cu  Cu1  0.135820  0.128820  0.128770  0.573743
    Cu  Cu2  0.180690  0.084120  0.326090  0.545906
    C   C1   0.574480  0.105000  0.227440  -0.119599
    C   C2   0.584820  0.130830  0.117520  0.254723
    C   C3   0.681530  0.132230  0.117460  0.209488
    C   C4   0.742030  0.107940  0.227420  -0.039893
    C   C5   0.729820  0.015620  0.282000  0.224289
    C   C6   0.632960  0.014020  0.281300  0.242053
    C   C7   0.612510  0.171510  0.283560  0.288952
    C   C8   0.708620  0.174720  0.281500  0.136121
    C   C9   0.836730  0.109600  0.227420  0.008854
    C   C10  0.479780  0.103340  0.227440  0.038125
    F   F1   0.551720  0.074160  0.064610  -0.253260
    F   F2   0.625530  0.986710  0.378650  -0.242662
    F   F3   0.717350  0.257690  0.234480  -0.234702
    F   F4   0.708690  0.075840  0.065220  -0.246140
    F   F5   0.562180  0.253200  0.240770  -0.249004
    F   F6   0.782210  0.990890  0.379790  -0.246658
    H   H1   0.688020  0.199220  0.074630  0.070408
    H   H2   0.544240  0.197100  0.074380  0.058712
    H   H3   0.609400  0.963100  0.242500  0.052238
    H   H4   0.753210  0.965580  0.244090  0.066334
    H   H5   0.750390  0.161760  0.361720  0.075386
    H   H6   0.607970  0.153300  0.364530  0.054814
    C   C11  0.005160  0.112560  0.227410  0.702211
    C   C12  0.912210  0.110920  0.227400  -0.268700
    O   O1   0.016490  0.132890  0.140060  -0.500835
    O   O2   0.056220  0.093310  0.314770  -0.412210
    C   C13  0.311340  0.100380  0.227440  0.742130
    C   C14  0.404290  0.102020  0.227450  -0.300690
    O   O3   0.300040  0.079800  0.314800  -0.487623
    O   O4   0.260260  0.119870  0.140090  -0.440178
    C   C15  0.138340  0.670430  0.136470  0.324341
    C   C16  0.136810  0.583710  0.136480  -0.288098
    C   C17  0.178170  0.542510  0.318390  0.323928
    C   C18  0.179700  0.629230  0.318390  -0.284793
    C   C19  0.159780  0.693190  0.227430  0.006370
    C   C20  0.156720  0.519750  0.227430  0.013647
    C   C21  0.155070  0.425720  0.227440  0.059736
    C   C22  0.161440  0.787220  0.227420  0.052027
    F   F7   0.118920  0.731830  0.047830  -0.189253
    F   F8   0.197720  0.481670  0.407550  -0.186436
    H   H7   0.119360  0.565190  0.062410  0.192486
    H   H8   0.197160  0.647750  0.392460  0.193867
    C   C23  0.164400  0.954470  0.227420  0.736421
    C   C24  0.162760  0.862170  0.227420  -0.303297
    O   O5   0.184810  0.965650  0.314780  -0.515206
    O   O6   0.145080  0.005230  0.140070  -0.441235
    C   C25  0.152110  0.258470  0.227440  0.695928
    C   C26  0.153740  0.350760  0.227440  -0.301143
    O   O7   0.131710  0.247290  0.140080  -0.478145
    O   O8   0.171410  0.207710  0.314790  -0.401938
    C   C27  0.304860  0.960350  0.622450  -0.185751
    C   C28  0.280980  0.984150  0.517410  -0.071606
    C   C29  0.167340  0.097420  0.517380  0.192889
    C   C30  0.191210  0.073630  0.622420  0.001656
    C   C31  0.259970  0.005090  0.674940  0.019981
    C   C32  0.146320  0.118370  0.674920  0.056790
    C   C33  0.170190  0.094570  0.779940  0.071880
    C   C34  0.238940  0.026040  0.832480  -0.330880
    C   C35  0.283840  0.981290  0.779970  0.269567
    C   C36  0.077560  0.186900  0.622390  -0.345541
    C   C37  0.032670  0.231640  0.674890  0.295361
    C   C38  0.056540  0.207850  0.779920  0.060631
    C   C39  0.125290  0.139320  0.832450  -0.039387
    C   C40  0.011650  0.252600  0.832420  -0.193463
    C   C41  0.035510  0.228800  0.937450  -0.102174
    C   C42  0.149160  0.115520  0.937480  0.197152
    O   O9   0.236750  0.081550  0.992790  -0.215590
    C   C43  0.251880  0.006620  0.076360  0.069561
    H   H9   0.304760  0.957830  0.072700  -0.075732
    H   H10  0.193030  0.975850  0.076710  0.062000
    H   H11  0.275300  0.024030  0.147860  0.077317
    O   O10  0.962930  0.300070  0.622650  -0.338711
    C   C44  0.892120  0.279150  0.555560  0.097222
    H   H12  0.890380  0.311800  0.477100  0.041077
    H   H13  0.830150  0.303490  0.570850  0.045827
    H   H14  0.896090  0.208260  0.564260  0.006652
    O   O11  0.135540  0.184890  0.462170  -0.193196
    C   C45  0.059600  0.202080  0.378730  -0.073059
    H   H15  0.011830  0.255690  0.383140  -0.002332
    H   H16  0.026810  0.144820  0.377960  0.054976
    H   H17  0.077250  0.224830  0.307170  0.119466
    O   O12  0.351940  0.909580  0.828910  -0.272762
    C   C46  0.385930  0.889020  0.935140  -0.009604
    H   H18  0.444660  0.837990  0.957510  0.072887
    H   H19  0.337630  0.862490  0.973310  0.058136
    H   H20  0.405430  0.946680  0.958930  0.094496
    H   H21  0.258370  0.006660  0.918000  0.179700
    H   H22  0.360850  0.904530  0.665210  0.125567
    H   H23  0.317540  0.947710  0.474670  0.153245
    H   H24  0.058130  0.206270  0.536870  0.213312
    H   H25  0.955660  0.308400  0.789650  0.138830
    H   H26  0.998960  0.265240  0.980190  0.153951
    N   N1   0.104270  0.160270  0.989980  0.008135
    N   N2   0.212240  0.052670  0.464880  -0.000016
