# Generated by REPEAT Assigner based on pymatgen
data_DB6-cuf_10272
_audit_creation_date              2022-05-24
_audit_creation_method            REPEAT_Assigner
_cell_length_a                    15.944500
_cell_length_b                    9.065200
_cell_length_c                    11.295700
_cell_angle_alpha                 94.170100
_cell_angle_beta                  85.921400
_cell_angle_gamma                 84.249600
_cell_volume                      1615.099005
_symmetry_space_group_name_H-M    P1
_symmetry_Int_Tables_number       1
loop_
    _symmetry_equiv_pos_site_id
    _symmetry_equiv_pos_as_xyz
    1  x,y,z
loop_
    _atom_site_type_symbol
    _atom_site_label
    _atom_site_fract_x
    _atom_site_fract_y
    _atom_site_fract_z
    _atom_type_partial_charge
    Cu  Cu1  0.213470  0.057200  0.089800  0.712926
    Cu  Cu2  0.200320  0.080740  0.324000  0.709575
    C   C1   0.741110  0.058500  0.094120  0.170739
    C   C2   0.690280  0.940870  0.150490  0.148294
    C   C3   0.789370  0.071530  0.206890  0.377194
    C   C4   0.674020  0.183950  0.150510  0.158152
    C   C5   0.624420  0.066410  0.206900  0.384486
    C   C6   0.739770  0.953830  0.263260  0.163761
    C   C7   0.723520  0.197020  0.263270  0.153993
    C   C8   0.672700  0.079370  0.319710  0.164259
    C   C9   0.884400  0.074470  0.206890  -0.316979
    C   C10  0.529400  0.063460  0.206920  -0.321445
    F   F1   0.672080  0.809560  0.092660  -0.204766
    F   F2   0.639240  0.301870  0.092740  -0.207729
    F   F3   0.636480  0.090100  0.435300  -0.215012
    F   F4   0.777310  0.047790  0.978520  -0.216044
    F   F5   0.741660  0.328420  0.321060  -0.205467
    F   F6   0.774630  0.835900  0.320980  -0.208126
    C   C11  0.053410  0.079740  0.206880  0.759308
    C   C12  0.960140  0.076830  0.206880  -0.110403
    O   O1   0.090530  0.070300  0.103210  -0.530748
    O   O2   0.078880  0.091140  0.310570  -0.552477
    C   C13  0.360380  0.058200  0.206920  0.754033
    C   C14  0.453650  0.061120  0.206920  -0.104926
    O   O3   0.323260  0.067650  0.310590  -0.528610
    O   O4   0.334910  0.046800  0.103230  -0.552525
    C   C15  0.210980  0.799250  0.206900  0.798196
    C   C16  0.208080  0.635470  0.206900  -0.193485
    O   O5   0.206130  0.864630  0.310580  -0.528460
    O   O6   0.217780  0.843780  0.103220  -0.548375
    C   C17  0.202810  0.338700  0.206900  0.797435
    C   C18  0.205720  0.502470  0.206900  -0.190198
    O   O7   0.196000  0.294160  0.310580  -0.548845
    O   O8   0.207660  0.273320  0.103220  -0.528968
    C   C19  0.124310  0.216590  0.675710  0.280872
    C   C20  0.131330  0.204060  0.551050  -0.208640
    C   C21  0.243780  0.003070  0.551090  -0.124424
    C   C22  0.236760  0.015600  0.675740  0.002552
    C   C23  0.177030  0.122360  0.738050  0.002722
    C   C24  0.170010  0.134880  0.862710  -0.122598
    C   C25  0.282460  0.933890  0.862750  -0.208995
    C   C26  0.289480  0.921370  0.738090  0.282360
    O   O9   0.064910  0.322730  0.742820  -0.263092
    C   C27  0.010230  0.420450  0.681800  -0.003403
    H   H1   0.047580  0.491050  0.626520  0.052786
    H   H2   0.968620  0.494800  0.748660  0.093156
    H   H3   0.969410  0.356210  0.626490  0.059587
    O   O10  0.348880  0.815220  0.670980  -0.264675
    C   C28  0.403560  0.717500  0.732000  0.000297
    H   H4   0.445170  0.643150  0.665140  0.092473
    H   H5   0.366210  0.646910  0.787280  0.051549
    H   H6   0.444380  0.781740  0.787310  0.058523
    H   H7   0.121370  0.221800  0.913450  0.145502
    H   H8   0.088410  0.280800  0.500300  0.178627
    H   H9   0.292420  0.916160  0.500340  0.146197
    H   H10  0.325380  0.857160  0.913510  0.178911
    N   N1   0.222730  0.040640  0.925070  0.064754
    N   N2   0.191060  0.097300  0.488730  0.066194
