# Generated by REPEAT Assigner based on pymatgen
data_DB6-cuf_6405
_audit_creation_date              2022-05-24
_audit_creation_method            REPEAT_Assigner
_cell_length_a                    14.853500
_cell_length_b                    9.065200
_cell_length_c                    13.448300
_cell_angle_alpha                 89.998200
_cell_angle_beta                  90.007500
_cell_angle_gamma                 84.318000
_cell_volume                      1801.915856
_symmetry_space_group_name_H-M    P1
_symmetry_Int_Tables_number       1
loop_
    _symmetry_equiv_pos_site_id
    _symmetry_equiv_pos_as_xyz
    1  x,y,z
loop_
    _atom_site_type_symbol
    _atom_site_label
    _atom_site_fract_x
    _atom_site_fract_y
    _atom_site_fract_z
    _atom_type_partial_charge
    Cu  Cu1  0.197180  0.036430  0.136710  0.773117
    Cu  Cu2  0.197210  0.036420  0.332300  0.785316
    C   C1   0.509060  0.030560  0.144350  -0.119959
    C   C2   0.509090  0.030550  0.324650  -0.154883
    C   C3   0.603140  0.033490  0.324660  0.072767
    C   C4   0.650160  0.034960  0.234500  -0.080805
    C   C5   0.603130  0.033490  0.144350  0.042769
    C   C6   0.650180  0.034940  0.414810  0.092656
    C   C7   0.744240  0.037870  0.414820  0.165957
    C   C8   0.791270  0.039360  0.324670  -0.029110
    C   C9   0.744230  0.037890  0.234510  0.004755
    C   C10  0.791250  0.039360  0.144350  -0.007024
    C   C11  0.744210  0.037910  0.054190  0.147159
    C   C12  0.650150  0.034980  0.054190  0.115541
    C   C13  0.885320  0.042290  0.324670  -0.066292
    C   C14  0.885310  0.042300  0.144350  -0.093153
    F   F1   0.605860  0.033570  0.503090  -0.134973
    F   F2   0.788610  0.039250  0.503090  -0.156336
    F   F3   0.788530  0.039280  0.965920  -0.154538
    F   F4   0.605780  0.033600  0.965920  -0.141743
    H   H1   0.923580  0.043490  0.070940  0.129964
    H   H2   0.470760  0.029380  0.070940  0.110325
    H   H3   0.470800  0.029360  0.398060  0.130986
    H   H4   0.923620  0.043460  0.398070  0.115585
    C   C15  0.032450  0.046870  0.234510  0.657671
    C   C16  0.932340  0.043760  0.234510  -0.080734
    O   O1   0.066030  0.047920  0.147930  -0.570630
    O   O2   0.066060  0.047910  0.321090  -0.577998
    C   C17  0.361940  0.025980  0.234500  0.525438
    C   C18  0.462040  0.029090  0.234500  -0.012038
    O   O3   0.328350  0.024950  0.321090  -0.477919
    O   O4   0.328330  0.024920  0.147920  -0.494215
    C   C19  0.201580  0.766710  0.234510  0.787721
    C   C20  0.198470  0.602930  0.234510  -0.215499
    O   O5   0.202640  0.821660  0.321090  -0.543829
    O   O6   0.202610  0.821670  0.147920  -0.532696
    C   C21  0.192810  0.306140  0.234500  0.885760
    C   C22  0.195930  0.469920  0.234500  -0.194161
    O   O7   0.191770  0.251180  0.321090  -0.620763
    O   O8   0.191750  0.251190  0.147920  -0.614833
    C   C23  0.136820  0.136800  0.947080  0.253642
    C   C24  0.136830  0.136800  0.842980  -0.211878
    C   C25  0.197190  0.036430  0.790940  -0.089213
    C   C26  0.257540  0.936070  0.843020  0.197045
    C   C27  0.257530  0.936070  0.947120  -0.074747
    C   C28  0.257560  0.936060  0.626040  -0.067292
    C   C29  0.257570  0.936050  0.521930  0.076890
    C   C30  0.136860  0.136790  0.521900  0.318646
    C   C31  0.136850  0.136790  0.626000  -0.332104
    C   C32  0.197200  0.036420  0.678060  0.213669
    O   O9   0.078330  0.236080  0.464640  -0.052860
    C   C33  0.017040  0.344160  0.513250  -0.106113
    H   H5   0.978010  0.411170  0.455920  0.093911
    H   H6   0.054650  0.420300  0.558470  0.061824
    H   H7   0.968160  0.289460  0.559720  0.061285
    O   O10  0.077460  0.234040  0.004850  -0.050668
    C   C34  0.012410  0.336380  0.956510  -0.110008
    H   H8   0.046660  0.415270  0.909890  0.061720
    H   H9   0.972280  0.401310  0.013980  0.092817
    H   H10  0.965100  0.276380  0.911290  0.065645
    O   O11  0.280480  0.793860  0.801590  -0.194503
    C   C35  0.359730  0.707190  0.837670  -0.056090
    H   H11  0.384180  0.626330  0.779380  0.074074
    H   H12  0.343080  0.643110  0.904440  0.053668
    H   H13  0.414920  0.777920  0.854190  0.070500
    O   O12  0.345660  0.896130  0.661440  -0.187752
    C   C36  0.402550  0.014710  0.668440  -0.038425
    H   H14  0.368720  0.123150  0.642850  0.064857
    H   H15  0.423910  0.026270  0.746890  0.054697
    H   H16  0.463770  0.986970  0.622270  0.064939
    H   H17  0.087700  0.218550  0.800600  0.124438
    H   H18  0.087700  0.218520  0.668360  0.145313
    H   H19  0.306710  0.854320  0.479570  0.121371
    H   H20  0.306670  0.854330  0.989500  0.150985
    N   N1   0.197170  0.036440  0.999150  -0.126994
    N   N2   0.197220  0.036410  0.469860  -0.192649
