# Generated by REPEAT Assigner based on pymatgen
data_DB6-cuf_2160
_audit_creation_date              2022-05-24
_audit_creation_method            REPEAT_Assigner
_cell_length_a                    15.625200
_cell_length_b                    9.065200
_cell_length_c                    14.184900
_cell_angle_alpha                 76.610600
_cell_angle_beta                  85.674800
_cell_angle_gamma                 84.600200
_cell_volume                      1942.955554
_symmetry_space_group_name_H-M    P1
_symmetry_Int_Tables_number       1
loop_
    _symmetry_equiv_pos_site_id
    _symmetry_equiv_pos_as_xyz
    1  x,y,z
loop_
    _atom_site_type_symbol
    _atom_site_label
    _atom_site_fract_x
    _atom_site_fract_y
    _atom_site_fract_z
    _atom_type_partial_charge
    Cu  Cu1  0.198840  0.083390  0.135950  0.615479
    Cu  Cu2  0.242640  0.010560  0.317340  0.551065
    C   C1   0.573700  0.132120  0.007270  -0.206796
    C   C2   0.487240  0.116550  0.038750  -0.033409
    C   C3   0.527620  0.049420  0.205960  0.229172
    C   C4   0.614090  0.064990  0.174500  0.010475
    C   C5   0.637120  0.106330  0.075150  -0.017279
    C   C6   0.677510  0.039200  0.242380  -0.023205
    C   C7   0.763970  0.054760  0.210920  0.003966
    C   C8   0.787010  0.096100  0.111580  -0.266987
    C   C9   0.723590  0.121890  0.043690  0.363763
    C   C10  0.654470  0.997840  0.341720  -0.234975
    C   C11  0.717890  0.972060  0.409600  0.346670
    C   C12  0.804360  0.987620  0.378140  -0.027472
    C   C13  0.827400  0.028970  0.278800  0.013971
    C   C14  0.867790  0.961830  0.446020  -0.149151
    C   C15  0.954250  0.977390  0.414560  -0.165750
    C   C16  0.913860  0.044530  0.247340  0.200969
    N   N1   0.941100  0.159730  0.165460  -0.503114
    H   H1   0.903410  0.262130  0.144440  0.260723
    H   H2   0.004270  0.154780  0.135650  0.180651
    N   N2   0.690390  0.929630  0.510690  -0.891162
    H   H3   0.729510  0.862730  0.563150  0.359525
    H   H4   0.625540  0.945460  0.532790  0.370765
    N   N3   0.500450  0.933660  0.287590  -0.504141
    H   H5   0.437300  0.938470  0.317470  0.190501
    H   H6   0.538200  0.831280  0.308290  0.252796
    N   N4   0.751770  0.152020  0.942580  -0.884377
    H   H7   0.813000  0.188910  0.920610  0.370167
    H   H8   0.718910  0.119470  0.890400  0.355136
    H   H9   0.857420  0.108760  0.085970  0.114386
    H   H10  0.592450  0.165790  0.926380  0.125213
    H   H11  0.435600  0.137550  0.983460  0.076470
    H   H12  0.584070  0.985170  0.367330  0.116807
    H   H13  0.849020  0.928170  0.526910  0.116237
    H   H14  0.005890  0.956390  0.469840  0.123475
    C   C17  0.069300  0.035300  0.281740  0.409565
    C   C18  0.977280  0.018740  0.315220  -0.076932
    O   O1   0.080790  0.073090  0.190210  -0.356095
    O   O2   0.119570  0.008610  0.350810  -0.338527
    C   C19  0.372180  0.058650  0.171550  0.456537
    C   C20  0.464200  0.075210  0.138070  -0.185893
    O   O3   0.360690  0.020850  0.263080  -0.342837
    O   O4   0.321910  0.085340  0.102490  -0.390892
    C   C21  0.224770  0.777840  0.225180  0.730388
    C   C22  0.221910  0.613650  0.226220  -0.171953
    O   O5   0.245130  0.800700  0.305130  -0.537446
    O   O6   0.206340  0.865190  0.144530  -0.523124
    C   C23  0.216710  0.316100  0.228110  0.708102
    C   C24  0.219580  0.480300  0.227070  -0.196981
    O   O7   0.235130  0.228760  0.308760  -0.459211
    O   O8   0.196360  0.293240  0.148160  -0.523619
    C   C25  0.363880  0.808920  0.569580  -0.189559
    C   C26  0.340560  0.847710  0.473030  -0.058138
    C   C27  0.229610  0.032230  0.513370  0.262730
    C   C28  0.252920  0.993470  0.609930  -0.040948
    C   C29  0.320050  0.881810  0.638020  0.028133
    C   C30  0.209090  0.066360  0.678370  0.074269
    C   C31  0.232390  0.027600  0.774920  0.068309
    C   C32  0.299520  0.915940  0.803030  -0.345390
    C   C33  0.343350  0.843050  0.734580  0.275408
    C   C34  0.141960  0.178010  0.650270  -0.345500
    C   C35  0.098130  0.250900  0.718720  0.270147
    C   C36  0.121430  0.212140  0.815270  0.096245
    C   C37  0.188560  0.100490  0.843370  -0.073586
    C   C38  0.077600  0.285040  0.883720  -0.234375
    C   C39  0.100900  0.246270  0.980270  -0.058329
    C   C40  0.211860  0.061720  0.939920  0.215407
    O   O9   0.298090  0.014240  0.963860  -0.146894
    C   C41  0.312060  0.883350  0.042350  -0.031578
    H   H15  0.363740  0.804440  0.019880  -0.051595
    H   H16  0.253400  0.820030  0.064050  0.096764
    H   H17  0.335480  0.917720  0.105320  0.118771
    O   O10  0.030030  0.362220  0.691260  -0.321756
    C   C42  0.959660  0.314640  0.649780  0.078171
    H   H18  0.958380  0.372400  0.571780  0.035250
    H   H19  0.898650  0.348780  0.687270  0.040344
    H   H20  0.962630  0.189300  0.657410  0.004930
    O   O11  0.199320  0.182950  0.469180  -0.254117
    C   C43  0.124380  0.202340  0.413000  0.095338
    H   H21  0.077830  0.290550  0.434350  -0.032223
    H   H22  0.091170  0.095800  0.424330  -0.016772
    H   H23  0.142160  0.245350  0.334970  0.084120
    O   O12  0.409790  0.725650  0.759340  -0.278828
    C   C44  0.443160  0.694130  0.853430  0.064875
    H   H24  0.500600  0.612090  0.854900  0.042121
    H   H25  0.394990  0.639890  0.909120  0.051141
    H   H26  0.463240  0.799420  0.869910  0.038934
    H   H27  0.318490  0.884370  0.881650  0.173766
    H   H28  0.418540  0.718000  0.592450  0.104891
    H   H29  0.376260  0.788340  0.417300  0.154800
    H   H30  0.122990  0.209560  0.571650  0.218048
    H   H31  0.022950  0.375950  0.860830  0.131815
    H   H32  0.065210  0.305620  0.036000  0.146398
    N   N5   0.168030  0.134610  0.008370  -0.065731
    N   N6   0.273450  0.959340  0.444920  -0.067453
