# Generated by REPEAT Assigner based on pymatgen
data_DB6-cuf_5577
_audit_creation_date              2022-05-24
_audit_creation_method            REPEAT_Assigner
_cell_length_a                    14.853500
_cell_length_b                    17.019300
_cell_length_c                    11.295700
_cell_angle_alpha                 90.239400
_cell_angle_beta                  85.910500
_cell_angle_gamma                 83.509400
_cell_volume                      2829.767360
_symmetry_space_group_name_H-M    P1
_symmetry_Int_Tables_number       1
loop_
    _symmetry_equiv_pos_site_id
    _symmetry_equiv_pos_as_xyz
    1  x,y,z
loop_
    _atom_site_type_symbol
    _atom_site_label
    _atom_site_fract_x
    _atom_site_fract_y
    _atom_site_fract_z
    _atom_type_partial_charge
    Cu  Cu1  0.209290  0.153060  0.011180  0.704666
    Cu  Cu2  0.195040  0.165560  0.244110  0.658374
    C   C1   0.520650  0.150420  0.020590  -0.102973
    C   C2   0.507510  0.161950  0.235330  -0.048506
    C   C3   0.601550  0.163510  0.235170  -0.032657
    C   C4   0.655140  0.158530  0.127720  -0.054294
    C   C5   0.614700  0.151980  0.020430  0.020799
    C   C6   0.642000  0.170050  0.342460  0.231560
    C   C7   0.736050  0.171610  0.342310  0.115986
    C   C8   0.789640  0.166630  0.234860  0.038613
    C   C9   0.749190  0.160090  0.127570  -0.045896
    C   C10  0.802780  0.155100  0.020120  -0.070258
    C   C11  0.762330  0.148560  0.912820  0.271055
    C   C12  0.668290  0.147000  0.912980  0.167951
    C   C13  0.883680  0.168190  0.234700  -0.122441
    C   C14  0.896830  0.156660  0.019960  -0.014660
    N   N1   0.815910  0.146850  0.801320  -0.840521
    H   H1   0.803800  0.111710  0.729590  0.334983
    H   H2   0.865570  0.185140  0.786800  0.354584
    N   N2   0.627280  0.143730  0.801650  -0.832142
    H   H3   0.657680  0.109520  0.729640  0.369402
    H   H4   0.567780  0.180220  0.787400  0.346460
    N   N3   0.776280  0.176990  0.453500  -0.654555
    H   H5   0.837180  0.143800  0.471240  0.309391
    H   H6   0.741850  0.210960  0.523400  0.248912
    N   N4   0.588640  0.173060  0.453910  -0.750849
    H   H7   0.614200  0.146990  0.529960  0.284627
    H   H8   0.526010  0.207780  0.464600  0.334588
    H   H9   0.940460  0.152600  0.932460  0.053090
    H   H10  0.487710  0.145100  0.933230  0.106212
    H   H11  0.463880  0.166010  0.322810  0.061889
    H   H12  0.916610  0.173510  0.322060  0.100422
    C   C15  0.037370  0.164860  0.127080  0.576761
    C   C16  0.937280  0.163210  0.127250  -0.115292
    O   O1   0.077260  0.159880  0.023910  -0.491195
    O   O2   0.064650  0.170950  0.230140  -0.495940
    C   C17  0.366970  0.153750  0.128210  0.581433
    C   C18  0.467060  0.155410  0.128040  -0.114631
    O   O3   0.327070  0.158740  0.231380  -0.479828
    O   O4   0.339690  0.147650  0.025150  -0.514226
    C   C19  0.211350  0.882110  0.048110  -0.176958
    C   C20  0.209280  0.800280  0.056500  0.179398
    C   C21  0.201670  0.765130  0.168070  0.119553
    C   C22  0.196150  0.811820  0.271240  -0.363744
    C   C23  0.198230  0.893650  0.262840  0.390782
    C   C24  0.195070  0.518340  0.198800  0.182247
    C   C25  0.192980  0.436510  0.207190  -0.181393
    C   C26  0.206110  0.424970  0.992450  0.393571
    C   C27  0.208190  0.506810  0.984060  -0.368862
    C   C28  0.202670  0.553490  0.087230  0.120364
    C   C29  0.199550  0.681480  0.176650  -0.159325
    C   C30  0.204800  0.637130  0.078650  -0.157062
    F   F1   0.192250  0.767090  0.952230  -0.157880
    F   F2   0.192670  0.938900  0.362740  -0.211444
    F   F3   0.212150  0.551520  0.303070  -0.159412
    F   F4   0.211670  0.379720  0.892560  -0.213044
    H   H13  0.217540  0.910720  0.957260  0.155718
    H   H14  0.214380  0.535420  0.893220  0.179601
    H   H15  0.186790  0.407890  0.298040  0.158431
    H   H16  0.189960  0.783190  0.362080  0.177991
    H   H17  0.211000  0.665750  0.987810  0.148849
    H   H18  0.193350  0.652860  0.267490  0.149521
    C   C31  0.208040  0.015880  0.142350  0.663912
    C   C32  0.205820  0.928790  0.151270  -0.232929
    O   O5   0.202470  0.050640  0.242470  -0.437705
    O   O6   0.215090  0.039570  0.036230  -0.510578
    C   C33  0.196300  0.302730  0.112950  0.654838
    C   C34  0.198510  0.389820  0.104020  -0.231656
    O   O7   0.201850  0.267970  0.012830  -0.440613
    O   O8   0.189250  0.279040  0.219060  -0.504795
    C   C35  0.112720  0.237710  0.588430  0.217345
    C   C36  0.120320  0.231060  0.464460  -0.065852
    C   C37  0.242120  0.124300  0.475410  0.092147
    C   C38  0.234520  0.130960  0.599390  -0.068974
    C   C39  0.169820  0.187660  0.655900  -0.081037
    C   C40  0.162210  0.194310  0.779880  0.098361
    C   C41  0.284020  0.087560  0.790830  -0.060394
    C   C42  0.291620  0.080910  0.666860  0.228157
    O   O9   0.048380  0.294090  0.649770  -0.248821
    C   C43  0.989150  0.345990  0.583440  0.017840
    H   H19  0.028850  0.383570  0.524300  0.047466
    H   H20  0.944090  0.385480  0.646260  0.076204
    H   H21  0.945700  0.311780  0.531640  0.026419
    O   O10  0.355960  0.024530  0.605520  -0.261401
    C   C44  0.415180  0.972630  0.671850  0.015837
    H   H22  0.460250  0.933140  0.609030  0.079341
    H   H23  0.375480  0.935050  0.730990  0.050332
    H   H24  0.458640  0.006830  0.723650  0.020845
    H   H25  0.109530  0.240480  0.825880  0.090327
    H   H26  0.073830  0.271820  0.409530  0.130734
    H   H27  0.294800  0.078140  0.429390  0.094007
    H   H28  0.330510  0.046800  0.845770  0.132929
    N   N5   0.219320  0.144260  0.847350  -0.155455
    N   N6   0.185020  0.174350  0.407940  -0.134626
