# Generated by REPEAT Assigner based on pymatgen
data_DB6-cuf_1708
_audit_creation_date              2022-05-24
_audit_creation_method            REPEAT_Assigner
_cell_length_a                    15.625200
_cell_length_b                    19.188900
_cell_length_c                    11.295700
_cell_angle_alpha                 94.092100
_cell_angle_beta                  67.892200
_cell_angle_gamma                 83.711500
_cell_volume                      3095.513019
_symmetry_space_group_name_H-M    P1
_symmetry_Int_Tables_number       1
loop_
    _symmetry_equiv_pos_site_id
    _symmetry_equiv_pos_as_xyz
    1  x,y,z
loop_
    _atom_site_type_symbol
    _atom_site_label
    _atom_site_fract_x
    _atom_site_fract_y
    _atom_site_fract_z
    _atom_type_partial_charge
    Cu  Cu1  0.156300  0.217440  0.001150  0.777656
    Cu  Cu2  0.141550  0.228870  0.241730  0.657731
    C   C1   0.572730  0.207940  0.830470  -0.179051
    C   C2   0.476140  0.208540  0.872200  -0.128349
    C   C3   0.462550  0.219080  0.093970  0.215642
    C   C4   0.559140  0.218480  0.052260  -0.012913
    C   C5   0.614220  0.212920  0.920510  0.018325
    C   C6   0.600630  0.223460  0.142290  0.039437
    C   C7   0.697220  0.222860  0.100580  0.034957
    C   C8   0.752310  0.217290  0.968840  -0.267632
    C   C9   0.710810  0.212320  0.878800  0.252861
    C   C10  0.545550  0.229020  0.274040  -0.274708
    C   C11  0.587040  0.233990  0.364080  0.233918
    C   C12  0.683630  0.233400  0.322370  0.033730
    C   C13  0.738720  0.227830  0.190620  -0.023134
    C   C14  0.725130  0.238370  0.412410  -0.177165
    C   C15  0.821720  0.237780  0.370700  -0.149476
    C   C16  0.835310  0.227240  0.148910  0.242136
    F   F1   0.765900  0.204000  0.751090  -0.184370
    F   F2   0.533010  0.236410  0.491250  -0.174298
    F   F3   0.397230  0.244820  0.211960  -0.126846
    F   F4   0.893190  0.243510  0.034120  -0.129808
    H   H1   0.830960  0.216800  0.934880  0.149090
    H   H2   0.617580  0.203410  0.723190  0.132405
    H   H3   0.442360  0.204490  0.798880  0.138744
    H   H4   0.466900  0.229500  0.308000  0.160225
    H   H5   0.680270  0.242910  0.519680  0.133042
    H   H6   0.855500  0.241820  0.444010  0.152710
    C   C17  0.979600  0.231570  0.194560  0.641893
    C   C18  0.876800  0.232210  0.238950  -0.131937
    O   O1   0.020620  0.226300  0.073160  -0.501376
    O   O2   0.007570  0.236420  0.286160  -0.525390
    C   C19  0.318260  0.214740  0.048320  0.593230
    C   C20  0.421050  0.214100  0.003930  -0.115018
    O   O3   0.277230  0.220010  0.169710  -0.448019
    O   O4   0.290290  0.209890  0.956710  -0.526948
    C   C21  0.147200  0.986750  0.230160  -0.135274
    C   C22  0.145760  0.913950  0.230770  0.411396
    C   C23  0.151850  0.872290  0.120190  -0.533610
    C   C24  0.159350  0.903430  0.008990  -0.137331
    C   C25  0.160770  0.976230  0.008380  0.339029
    N   N1   0.207370  0.747840  0.015850  -0.392181
    N   N2   0.206030  0.678690  0.016430  -0.368517
    C   C26  0.147560  0.652950  0.122010  0.955655
    N   N3   0.090510  0.698990  0.227000  -0.359796
    N   N4   0.091870  0.768150  0.226420  -0.349882
    C   C27  0.150310  0.793350  0.120830  0.989305
    C   C28  0.138510  0.542880  0.233880  0.400681
    C   C29  0.137070  0.470090  0.234490  -0.156857
    C   C30  0.150670  0.459560  0.012700  0.345700
    C   C31  0.152090  0.532360  0.012090  -0.140193
    C   C32  0.146020  0.574020  0.122680  -0.509588
    O   O5   0.168210  0.010950  0.899370  -0.271556
    C   C33  0.174790  0.970460  0.784420  0.050635
    H   H7   0.111170  0.945210  0.801930  0.043051
    H   H8   0.238530  0.930220  0.747380  0.022537
    H   H9   0.180240  0.006290  0.709940  0.071672
    O   O6   0.140060  0.884360  0.342870  -0.405501
    C   C34  0.226720  0.848470  0.338040  0.171294
    H   H10  0.243360  0.873710  0.416690  0.007567
    H   H11  0.286240  0.849480  0.244930  -0.016459
    H   H12  0.219480  0.792600  0.353370  0.033880
    O   O7   0.156570  0.414520  0.904380  -0.254775
    C   C35  0.164520  0.444070  0.788830  -0.007868
    H   H13  0.102150  0.483400  0.805790  0.060780
    H   H14  0.168360  0.401180  0.715050  0.069588
    H   H15  0.229510  0.468310  0.751240  0.045229
    O   O8   0.134030  0.582730  0.345410  -0.397347
    C   C36  0.221740  0.600810  0.340220  0.155734
    H   H16  0.237530  0.578880  0.419150  0.014860
    H   H17  0.216590  0.659150  0.354630  0.041185
    H   H18  0.280840  0.580250  0.247290  -0.009994
    H   H19  0.142240  0.020670  0.320210  0.114918
    H   H20  0.164310  0.869510  0.918940  0.103205
    H   H21  0.130960  0.444740  0.325040  0.133334
    H   H22  0.158210  0.557710  0.921550  0.097562
    C   C37  0.156210  0.095360  0.118310  0.586621
    C   C38  0.154700  0.017890  0.118970  -0.186133
    O   O9   0.150190  0.126420  0.224590  -0.472392
    O   O10  0.163240  0.116300  0.011580  -0.488894
    C   C39  0.141640  0.350950  0.124570  0.636826
    C   C40  0.143160  0.428430  0.123900  -0.200132
    O   O11  0.147670  0.319890  0.018290  -0.481713
    O   O12  0.134610  0.330010  0.231290  -0.512202
    C   C41  0.056370  0.294830  0.630220  0.249581
    C   C42  0.064230  0.288750  0.502160  -0.105625
    C   C43  0.190270  0.191160  0.447770  0.061320
    C   C44  0.182410  0.197240  0.575820  -0.068742
    C   C45  0.115450  0.249080  0.667050  -0.080325
    C   C46  0.107580  0.255160  0.795110  0.138758
    C   C47  0.233630  0.157570  0.740710  0.008219
    C   C48  0.241490  0.151490  0.612650  0.189611
    O   O13  0.989780  0.346370  0.726080  -0.241972
    C   C49  0.928500  0.393820  0.691530  -0.038155
    H   H23  0.968950  0.426430  0.618770  0.048799
    H   H24  0.881860  0.429920  0.778530  0.090617
    H   H25  0.884160  0.364280  0.655370  0.062405
    O   O14  0.308080  0.099950  0.516790  -0.226626
    C   C50  0.369360  0.052500  0.551340  -0.032059
    H   H26  0.416000  0.016400  0.464350  0.079857
    H   H27  0.328910  0.019880  0.624100  0.055927
    H   H28  0.413700  0.082030  0.587500  0.055548
    H   H29  0.053060  0.297360  0.869380  0.084672
    H   H30  0.016120  0.326010  0.472190  0.141630
    H   H31  0.244790  0.148960  0.373480  0.079786
    H   H32  0.281740  0.120310  0.770700  0.118691
    N   N5   0.166680  0.209400  0.831940  -0.216765
    N   N6   0.131180  0.236910  0.410940  -0.100502
