# Generated by REPEAT Assigner based on pymatgen
data_DB6-cuf_10892
_audit_creation_date              2022-05-24
_audit_creation_method            REPEAT_Assigner
_cell_length_a                    10.654600
_cell_length_b                    12.811400
_cell_length_c                    14.586300
_cell_angle_alpha                 84.568200
_cell_angle_beta                  90.009200
_cell_angle_gamma                 84.263200
_cell_volume                      1972.074121
_symmetry_space_group_name_H-M    P1
_symmetry_Int_Tables_number       1
loop_
    _symmetry_equiv_pos_site_id
    _symmetry_equiv_pos_as_xyz
    1  x,y,z
loop_
    _atom_site_type_symbol
    _atom_site_label
    _atom_site_fract_x
    _atom_site_fract_y
    _atom_site_fract_z
    _atom_type_partial_charge
    Cu  Cu1  0.129010  0.177420  0.087260  0.819123
    Cu  Cu2  0.129050  0.177420  0.267580  0.809742
    C   C1   0.694550  0.178860  0.260420  0.316758
    C   C2   0.563540  0.175970  0.260660  -0.230864
    C   C3   0.563520  0.175980  0.094410  0.311512
    C   C4   0.694520  0.178880  0.094180  -0.227005
    F   F1   0.758250  0.180100  0.340630  -0.202068
    F   F2   0.499740  0.174850  0.014190  -0.201261
    H   H1   0.510240  0.174800  0.328440  0.158192
    H   H2   0.747830  0.180060  0.026390  0.158079
    C   C5   0.899460  0.183410  0.176930  0.627716
    C   C6   0.760040  0.180320  0.177180  -0.155942
    O   O1   0.946230  0.184450  0.097010  -0.501874
    O   O2   0.946270  0.184440  0.256670  -0.443402
    C   C7   0.358600  0.171430  0.177910  0.624596
    C   C8   0.498030  0.174520  0.177650  -0.150674
    O   O3   0.311830  0.170380  0.257830  -0.499532
    O   O4   0.311790  0.170400  0.098170  -0.444302
    C   C9   0.128290  0.650050  0.055010  0.303957
    C   C10  0.125390  0.540550  0.064110  -0.305092
    C   C11  0.125420  0.540540  0.230360  -0.238736
    C   C12  0.128320  0.650040  0.221260  0.027703
    C   C13  0.129750  0.704790  0.133580  0.024329
    C   C14  0.132650  0.814290  0.124480  -0.237669
    C   C15  0.132680  0.814280  0.290730  -0.302751
    C   C16  0.129780  0.704780  0.299830  0.300030
    F   F3   0.129620  0.701430  0.969270  -0.199094
    F   F4   0.128450  0.653400  0.385570  -0.198241
    H   H3   0.133810  0.858870  0.053090  0.153050
    H   H4   0.124210  0.495990  0.000130  0.167401
    H   H5   0.124260  0.495950  0.301740  0.153406
    H   H6   0.133860  0.858860  0.354700  0.166926
    C   C17  0.137200  0.985580  0.193370  0.568925
    C   C18  0.134110  0.869040  0.203060  0.055808
    O   O5   0.138260  0.024690  0.269950  -0.503354
    O   O6   0.138220  0.024690  0.110290  -0.520551
    C   C19  0.120860  0.369250  0.161470  0.572217
    C   C20  0.123950  0.485790  0.151780  0.055452
    O   O7   0.119810  0.330150  0.084890  -0.505201
    O   O8   0.119840  0.330140  0.244550  -0.521550
    C   C21  0.044190  0.248290  0.719500  0.273369
    C   C22  0.044210  0.248290  0.623520  -0.165902
    C   C23  0.213880  0.106540  0.635340  0.277110
    C   C24  0.213870  0.106540  0.731320  -0.169077
    C   C25  0.129020  0.177420  0.773400  -0.088178
    C   C26  0.129050  0.177420  0.581440  -0.089966
    C   C27  0.129060  0.177420  0.477370  0.228564
    C   C28  0.129000  0.177420  0.877470  0.231997
    O   O9   0.297040  0.037060  0.588540  -0.261543
    C   C29  0.385130  0.963470  0.640870  0.012922
    H   H7   0.334940  0.908680  0.687930  0.050728
    H   H8   0.450720  0.005390  0.679900  0.047704
    H   H9   0.441810  0.916120  0.592850  0.091496
    O   O10  0.961030  0.317770  0.766310  -0.260201
    C   C30  0.872940  0.391370  0.713970  0.009766
    H   H10  0.807350  0.349440  0.674940  0.048941
    H   H11  0.923130  0.446160  0.666910  0.051614
    H   H12  0.816260  0.438720  0.761990  0.092179
    H   H13  0.975140  0.306010  0.579650  0.162351
    H   H14  0.282940  0.048820  0.775200  0.163120
    N   N1   0.128990  0.177420  0.960420  -0.249405
    N   N2   0.129080  0.177410  0.394410  -0.243350
