# Generated by REPEAT Assigner based on pymatgen
data_DB6-cuf_10398
_audit_creation_date              2022-05-24
_audit_creation_method            REPEAT_Assigner
_cell_length_a                    14.971500
_cell_length_b                    12.811400
_cell_length_c                    9.130310
_cell_angle_alpha                 84.568200
_cell_angle_beta                  90.003800
_cell_angle_gamma                 83.829900
_cell_volume                      1733.191394
_symmetry_space_group_name_H-M    P1
_symmetry_Int_Tables_number       1
loop_
    _symmetry_equiv_pos_site_id
    _symmetry_equiv_pos_as_xyz
    1  x,y,z
loop_
    _atom_site_type_symbol
    _atom_site_label
    _atom_site_fract_x
    _atom_site_fract_y
    _atom_site_fract_z
    _atom_type_partial_charge
    Cu  Cu1  0.216650  0.183330  0.939150  0.644107
    Cu  Cu2  0.216670  0.183330  0.227240  0.613545
    C   C1   0.907210  0.187550  0.215440  0.343475
    C   C2   0.813900  0.185490  0.215700  -0.316270
    C   C3   0.767250  0.184460  0.083050  0.056668
    C   C4   0.813900  0.185500  0.950120  0.194543
    C   C5   0.907200  0.187560  0.949850  -0.192747
    C   C6   0.619430  0.181190  0.950680  0.197646
    C   C7   0.526120  0.179120  0.950950  -0.191534
    C   C8   0.526130  0.179110  0.216540  0.340280
    C   C9   0.619430  0.181180  0.216270  -0.311335
    C   C10  0.666080  0.182210  0.083340  0.051924
    F   F1   0.952550  0.189110  0.343740  -0.205379
    F   F2   0.776710  0.228540  0.820130  -0.151453
    F   F3   0.656650  0.138140  0.832150  -0.153534
    F   F4   0.480810  0.177550  0.345200  -0.198207
    H   H1   0.775930  0.184660  0.323950  0.181401
    H   H2   0.657420  0.182010  0.324290  0.177802
    H   H3   0.488130  0.178280  0.842930  0.160627
    H   H4   0.945180  0.188400  0.841610  0.166020
    C   C11  0.053160  0.190790  0.082220  0.602719
    C   C12  0.953860  0.188580  0.082510  -0.172343
    O   O1   0.086470  0.191530  0.954580  -0.445924
    O   O2   0.086490  0.191520  0.209650  -0.415355
    C   C13  0.380170  0.175880  0.084170  0.606201
    C   C14  0.479470  0.178080  0.083870  -0.173287
    O   O3   0.346850  0.175130  0.211800  -0.383490
    O   O4   0.346830  0.175150  0.956740  -0.481229
    C   C15  0.216140  0.655970  0.887640  0.285161
    C   C16  0.214080  0.546490  0.902170  -0.302540
    C   C17  0.214080  0.546480  0.167760  -0.218236
    C   C18  0.216150  0.655960  0.153230  0.038738
    C   C19  0.217180  0.710700  0.013160  0.045154
    C   C20  0.219240  0.820180  0.998630  -0.234150
    C   C21  0.219260  0.820170  0.264210  -0.287139
    C   C22  0.217190  0.710690  0.278750  0.277133
    F   F5   0.217100  0.707340  0.750660  -0.176399
    F   F6   0.216230  0.659320  0.415730  -0.175166
    H   H5   0.220070  0.864750  0.884580  0.138462
    H   H6   0.213240  0.501930  0.799960  0.173500
    H   H7   0.213260  0.501890  0.281800  0.135551
    H   H8   0.220090  0.864740  0.366420  0.168913
    C   C23  0.222480  0.991440  0.108680  0.577667
    C   C24  0.220280  0.874920  0.124160  0.029781
    O   O5   0.223230  0.030540  0.231020  -0.467531
    O   O6   0.223210  0.030550  0.975960  -0.491458
    C   C25  0.210850  0.375220  0.057710  0.583316
    C   C26  0.213050  0.491740  0.042230  0.025385
    O   O7   0.210100  0.336120  0.935370  -0.456496
    O   O8   0.210110  0.336120  0.190430  -0.507349
    C   C27  0.156230  0.254740  0.650360  0.299512
    C   C28  0.156250  0.254740  0.497020  -0.065125
    C   C29  0.277100  0.111920  0.516040  0.366985
    C   C30  0.277080  0.111920  0.669380  -0.137034
    F   F7   0.097750  0.323630  0.715700  -0.132831
    F   F8   0.335650  0.043100  0.450620  -0.137316
    H   H9   0.107060  0.312900  0.426870  0.170237
    H   H10  0.326280  0.053760  0.739530  0.177092
    N   N1   0.216650  0.183330  0.736530  -0.107249
    N   N2   0.216680  0.183330  0.429860  -0.141439
