# Generated by REPEAT Assigner based on pymatgen
data_DB6-cuf_6717
_audit_creation_date              2022-05-24
_audit_creation_method            REPEAT_Assigner
_cell_length_a                    14.971500
_cell_length_b                    19.188900
_cell_length_c                    14.421500
_cell_angle_alpha                 90.002200
_cell_angle_beta                  90.004400
_cell_angle_gamma                 83.377800
_cell_volume                      4115.461785
_symmetry_space_group_name_H-M    P1
_symmetry_Int_Tables_number       1
loop_
    _symmetry_equiv_pos_site_id
    _symmetry_equiv_pos_as_xyz
    1  x,y,z
loop_
    _atom_site_type_symbol
    _atom_site_label
    _atom_site_fract_x
    _atom_site_fract_y
    _atom_site_fract_z
    _atom_type_partial_charge
    Cu  Cu1  0.197600  0.146320  0.044750  0.728150
    Cu  Cu2  0.197620  0.146330  0.227140  0.958661
    C   C1   0.888130  0.149140  0.220020  0.216122
    C   C2   0.794840  0.147770  0.220020  -0.185964
    C   C3   0.748190  0.147070  0.135950  -0.129082
    C   C4   0.794830  0.147760  0.051880  0.254593
    C   C5   0.888120  0.149140  0.051880  -0.158087
    C   C6   0.600390  0.144890  0.051870  -0.033326
    C   C7   0.507090  0.143520  0.051870  -0.021337
    C   C8   0.507100  0.143520  0.220010  0.306100
    C   C9   0.600390  0.144900  0.220020  -0.299719
    C   C10  0.647030  0.145580  0.135940  0.176594
    O   O1   0.455690  0.143460  0.302380  -0.191234
    C   C11  0.498910  0.146260  0.390370  0.011273
    H   H1   0.447410  0.146240  0.445640  0.060433
    H   H2   0.531090  0.195370  0.397020  0.020602
    H   H3   0.548720  0.099290  0.400560  0.026233
    O   O2   0.940010  0.149390  0.302080  -0.122363
    C   C12  0.897050  0.146710  0.390210  -0.078605
    H   H4   0.847120  0.193620  0.400330  0.042592
    H   H5   0.948680  0.146840  0.445340  0.060667
    H   H6   0.864870  0.097590  0.397080  0.055143
    O   O3   0.763950  0.110800  0.975630  -0.199187
    C   C13  0.793550  0.127060  0.884450  -0.153139
    H   H7   0.743710  0.112230  0.833280  0.087634
    H   H8   0.858890  0.095840  0.868570  0.104373
    H   H9   0.798580  0.184140  0.876740  0.083141
    O   O4   0.625690  0.182650  0.974520  -0.199155
    C   C14  0.619150  0.257330  0.986030  0.061562
    H   H10  0.593100  0.275250  0.055370  0.034497
    H   H11  0.686620  0.274840  0.976310  0.010627
    H   H12  0.573310  0.282630  0.932290  0.020061
    H   H13  0.756870  0.147220  0.288480  0.124703
    H   H14  0.638370  0.145460  0.288470  0.129416
    H   H15  0.469110  0.142950  0.983410  0.102878
    H   H16  0.926090  0.149680  0.983420  0.107592
    C   C15  0.034060  0.151280  0.135950  0.728429
    C   C16  0.934770  0.149820  0.135960  -0.206227
    O   O5   0.067370  0.151770  0.055210  -0.570161
    O   O6   0.067380  0.151780  0.216690  -0.593821
    C   C17  0.361160  0.141370  0.135940  0.693332
    C   C18  0.460450  0.142830  0.135940  -0.249147
    O   O7   0.327850  0.140880  0.216680  -0.573128
    O   O8   0.327830  0.140880  0.055200  -0.545138
    C   C19  0.202510  0.904760  0.220030  -0.196806
    C   C20  0.201130  0.831930  0.220030  0.400486
    C   C21  0.200430  0.795520  0.135960  -0.533408
    C   C22  0.201100  0.831940  0.051880  -0.172608
    C   C23  0.202480  0.904770  0.051890  0.390295
    N   N1   0.249170  0.676020  0.073370  -0.365267
    N   N2   0.247870  0.606840  0.073380  -0.370009
    C   C24  0.196290  0.576100  0.135940  0.990281
    N   N3   0.146080  0.617150  0.198510  -0.360890
    N   N4   0.147390  0.686340  0.198520  -0.356790
    C   C25  0.198940  0.716550  0.135940  1.000708
    C   C26  0.194120  0.460720  0.220010  0.419368
    C   C27  0.192730  0.387890  0.220000  -0.251128
    C   C28  0.192710  0.387900  0.051850  0.286568
    C   C29  0.194090  0.460720  0.051860  -0.114895
    C   C30  0.194800  0.497130  0.135940  -0.550359
    F   F1   0.201640  0.797470  0.302200  -0.201981
    F   F2   0.202940  0.940060  0.970390  -0.225551
    F   F3   0.195940  0.494970  0.302150  -0.207667
    F   F4   0.191870  0.352660  0.970370  -0.186567
    H   H17  0.203070  0.934400  0.288490  0.153738
    H   H18  0.200540  0.802290  0.983430  0.134212
    H   H19  0.192180  0.358250  0.288460  0.165379
    H   H20  0.194640  0.490370  0.983410  0.123694
    C   C31  0.204640  0.018680  0.135960  0.593579
    C   C32  0.203180  0.941170  0.135970  -0.120379
    O   O9   0.205140  0.044700  0.216700  -0.503189
    O   O10  0.205120  0.044690  0.055220  -0.471269
    C   C33  0.190570  0.273970  0.135940  0.535823
    C   C34  0.192030  0.351480  0.135930  -0.026886
    O   O11  0.190080  0.247950  0.055200  -0.436921
    O   O12  0.190090  0.247970  0.216680  -0.526890
    C   C35  0.261200  0.096700  0.666850  0.181040
    C   C36  0.180370  0.083240  0.605020  0.289549
    C   C37  0.197600  0.146320  0.727310  0.106295
    C   C38  0.278440  0.159760  0.605050  0.284784
    C   C39  0.197620  0.146330  0.544590  0.016883
    C   C40  0.116730  0.132830  0.666840  0.254391
    C   C41  0.214850  0.209370  0.666880  0.132599
    C   C42  0.133970  0.195940  0.605070  0.236163
    C   C43  0.197590  0.146310  0.832570  -0.093302
    C   C44  0.197620  0.146340  0.439330  0.147074
    N   N5   0.165590  0.010320  0.562790  -0.766041
    H   H21  0.104950  0.017930  0.526230  0.314442
    H   H22  0.154640  0.979220  0.620200  0.317061
    N   N6   0.032440  0.113460  0.693330  -0.841516
    H   H23  0.007570  0.155340  0.735820  0.325557
    H   H24  0.043000  0.069140  0.735770  0.294413
    N   N7   0.333270  0.038180  0.693310  -0.770751
    H   H25  0.376410  0.063060  0.735820  0.320631
    H   H26  0.301410  0.004480  0.735810  0.318407
    N   N8   0.369010  0.169060  0.562870  -0.643237
    H   H27  0.359150  0.215970  0.525560  0.265529
    H   H28  0.408480  0.178320  0.620360  0.274772
    N   N9   0.237310  0.272400  0.694590  -0.746339
    H   H29  0.243340  0.304750  0.637180  0.269328
    H   H30  0.180780  0.294040  0.731540  0.310227
    N   N10  0.068230  0.244310  0.562820  -0.609228
    H   H31  0.038130  0.270660  0.620230  0.232993
    H   H32  0.100870  0.280810  0.525860  0.237415
    N   N11  0.197590  0.146310  0.916470  -0.099334
    N   N12  0.197630  0.146340  0.355420  -0.271062
