# Generated by REPEAT Assigner based on pymatgen
data_DB6-cuf_10270
_audit_creation_date              2022-05-24
_audit_creation_method            REPEAT_Assigner
_cell_length_a                    15.944500
_cell_length_b                    10.654600
_cell_length_c                    11.295700
_cell_angle_alpha                 94.150900
_cell_angle_beta                  85.921400
_cell_angle_gamma                 83.988100
_cell_volume                      1897.377756
_symmetry_space_group_name_H-M    P1
_symmetry_Int_Tables_number       1
loop_
    _symmetry_equiv_pos_site_id
    _symmetry_equiv_pos_as_xyz
    1  x,y,z
loop_
    _atom_site_type_symbol
    _atom_site_label
    _atom_site_fract_x
    _atom_site_fract_y
    _atom_site_fract_z
    _atom_type_partial_charge
    Cu  Cu1  0.177680  0.132900  0.054370  0.647412
    Cu  Cu2  0.164460  0.152940  0.288580  0.633704
    C   C1   0.705320  0.134010  0.058690  0.161975
    C   C2   0.654790  0.033880  0.115060  0.161416
    C   C3   0.753540  0.145100  0.171460  0.370247
    C   C4   0.637900  0.240800  0.115080  0.176608
    C   C5   0.588600  0.140750  0.171470  0.370199
    C   C6   0.704250  0.044910  0.227830  0.175849
    C   C7   0.687360  0.251920  0.227840  0.160886
    C   C8   0.636850  0.151770  0.284280  0.159192
    C   C9   0.848560  0.147610  0.171460  -0.321471
    C   C10  0.493590  0.138230  0.171490  -0.325000
    F   F1   0.636930  0.922110  0.057230  -0.213175
    F   F2   0.602810  0.341180  0.057320  -0.216328
    F   F3   0.600600  0.160910  0.399870  -0.215045
    F   F4   0.741540  0.124890  0.943090  -0.215680
    F   F5   0.705150  0.363780  0.285640  -0.212858
    F   F6   0.739420  0.944520  0.285550  -0.214790
    C   C11  0.017550  0.152090  0.171460  0.768563
    C   C12  0.924290  0.149610  0.171450  -0.106785
    O   O1   0.054700  0.144050  0.067780  -0.545864
    O   O2   0.043000  0.161800  0.275140  -0.564891
    C   C13  0.324590  0.133760  0.171490  0.748454
    C   C14  0.417850  0.136240  0.171500  -0.098489
    O   O3   0.287440  0.141800  0.275170  -0.542111
    O   O4   0.299140  0.124050  0.067800  -0.557560
    C   C15  0.178320  0.699180  0.063510  0.481497
    C   C16  0.176000  0.568190  0.063520  -0.290980
    C   C17  0.163820  0.586680  0.279440  0.382161
    C   C18  0.166150  0.717670  0.279430  -0.246470
    N   N1   0.186360  0.756630  0.953320  -0.905002
    H   H1   0.188170  0.854190  0.951990  0.352651
    H   H2   0.190100  0.701960  0.872110  0.363805
    N   N2   0.158810  0.528730  0.389630  -0.796525
    H   H3   0.160250  0.430570  0.390340  0.303599
    H   H4   0.167750  0.581120  0.468610  0.331574
    H   H5   0.180030  0.507350  0.975610  0.142986
    H   H6   0.162120  0.778510  0.367350  0.140929
    C   C19  0.175860  0.913320  0.171470  0.640847
    C   C20  0.173390  0.773910  0.171460  -0.239729
    O   O5   0.170840  0.968980  0.275150  -0.448822
    O   O6   0.182540  0.951240  0.067790  -0.431214
    C   C21  0.166280  0.372520  0.171480  0.602625
    C   C22  0.168750  0.511930  0.171480  -0.175844
    O   O7   0.171290  0.316870  0.067790  -0.441376
    O   O8   0.159600  0.334610  0.275160  -0.406131
    C   C23  0.088100  0.268580  0.640290  0.229561
    C   C24  0.095150  0.257910  0.515630  -0.081491
    C   C25  0.208130  0.086820  0.515660  -0.051191
    C   C26  0.201080  0.097490  0.640310  -0.025223
    C   C27  0.141060  0.188370  0.702630  -0.027742
    C   C28  0.134010  0.199020  0.827290  -0.043364
    C   C29  0.246990  0.027940  0.827310  -0.086592
    C   C30  0.254040  0.017280  0.702650  0.229973
    O   O9   0.028420  0.358930  0.707400  -0.256204
    C   C31  0.973490  0.442110  0.646380  -0.011259
    H   H7   0.010650  0.502200  0.591100  0.041672
    H   H8   0.931690  0.505400  0.713240  0.094298
    H   H9   0.932840  0.387430  0.591070  0.066557
    O   O10  0.313720  0.926920  0.635540  -0.253654
    C   C32  0.368650  0.843740  0.696560  -0.014180
    H   H10  0.410450  0.780450  0.629700  0.093742
    H   H11  0.331490  0.783650  0.751840  0.040116
    H   H12  0.409300  0.898420  0.751870  0.070151
    H   H13  0.085140  0.273020  0.878020  0.130834
    H   H14  0.052030  0.323240  0.464880  0.140722
    H   H15  0.256990  0.012840  0.464910  0.129895
    H   H16  0.290110  0.962620  0.878080  0.136975
    N   N3   0.186980  0.118810  0.889640  -0.055907
    N   N4   0.155160  0.167040  0.453310  -0.042727
