# Generated by REPEAT Assigner based on pymatgen
data_DB6-cuf_3248
_audit_creation_date              2022-05-24
_audit_creation_method            REPEAT_Assigner
_cell_length_a                    15.625200
_cell_length_b                    17.019300
_cell_length_c                    14.586300
_cell_angle_alpha                 86.122000
_cell_angle_beta                  71.928900
_cell_angle_gamma                 82.621100
_cell_volume                      3655.467260
_symmetry_space_group_name_H-M    P1
_symmetry_Int_Tables_number       1
loop_
    _symmetry_equiv_pos_site_id
    _symmetry_equiv_pos_as_xyz
    1  x,y,z
loop_
    _atom_site_type_symbol
    _atom_site_label
    _atom_site_fract_x
    _atom_site_fract_y
    _atom_site_fract_z
    _atom_type_partial_charge
    Cu  Cu1  0.170040  0.229610  0.999850  0.846888
    Cu  Cu2  0.170070  0.229600  0.180170  0.858690
    C   C1   0.575980  0.228040  0.872050  -0.180138
    C   C2   0.481950  0.226470  0.903450  -0.136263
    C   C3   0.481980  0.226470  0.069670  0.208715
    C   C4   0.576020  0.228040  0.038280  -0.015176
    C   C5   0.623010  0.228820  0.939470  0.021853
    C   C6   0.623040  0.228820  0.105700  0.037374
    C   C7   0.717070  0.230390  0.074310  0.062357
    C   C8   0.764070  0.231170  0.975510  -0.299080
    C   C9   0.717040  0.230390  0.908080  0.262043
    C   C10  0.576050  0.228040  0.204510  -0.289570
    C   C11  0.623080  0.228820  0.271930  0.258471
    C   C12  0.717100  0.230390  0.240550  0.033469
    C   C13  0.764100  0.231170  0.141740  -0.037870
    C   C14  0.764140  0.231170  0.307970  -0.185607
    C   C15  0.858170  0.232740  0.276580  -0.133655
    C   C16  0.858130  0.232740  0.110350  0.220457
    F   F1   0.764270  0.227850  0.812570  -0.195224
    F   F2   0.576840  0.224720  0.367580  -0.194898
    F   F3   0.423960  0.249220  0.156300  -0.116731
    F   F4   0.909020  0.257290  0.022360  -0.122431
    H   H1   0.840640  0.232440  0.949950  0.159455
    H   H2   0.614240  0.228680  0.791590  0.138941
    H   H3   0.443670  0.225830  0.848540  0.132495
    H   H4   0.499490  0.226760  0.230070  0.157109
    H   H5   0.725870  0.230540  0.388430  0.139546
    H   H6   0.896450  0.233380  0.331480  0.132592
    C   C17  0.005230  0.235190  0.144370  0.592293
    C   C18  0.905160  0.233520  0.177770  -0.093241
    O   O1   0.038800  0.235750  0.053340  -0.497634
    O   O2   0.038830  0.235750  0.212980  -0.512190
    C   C19  0.334880  0.224020  0.035650  0.592292
    C   C20  0.434950  0.225690  0.002240  -0.094673
    O   O3   0.301310  0.223460  0.126680  -0.498264
    O   O4   0.301280  0.223470  0.967030  -0.506996
    C   C21  0.174360  0.956680  0.027000  -0.091458
    C   C22  0.172800  0.874390  0.034020  0.112440
    C   C23  0.172040  0.833260  0.120640  0.103508
    C   C24  0.172840  0.874400  0.200250  -0.338815
    C   C25  0.174410  0.956680  0.193230  0.303214
    C   C26  0.167320  0.584820  0.146000  0.112539
    C   C27  0.165750  0.502530  0.153020  -0.073961
    C   C28  0.165720  0.502530  0.986790  0.318819
    C   C29  0.167280  0.584810  0.979770  -0.342992
    C   C30  0.168080  0.625950  0.059380  0.104356
    C   C31  0.170440  0.749150  0.127820  -0.107932
    C   C32  0.169690  0.710060  0.052200  -0.107994
    O   O5   0.175650  0.001420  0.271040  -0.144057
    C   C33  0.176470  0.961450  0.360100  -0.102115
    H   H7   0.114060  0.931780  0.391630  0.064003
    H   H8   0.177870  0.005820  0.411740  0.076863
    H   H9   0.238110  0.918230  0.349530  0.055024
    O   O6   0.200010  0.839740  0.943340  -0.342565
    C   C34  0.296050  0.827670  0.899950  0.129163
    H   H10  0.311170  0.798510  0.830110  0.035493
    H   H11  0.325050  0.885220  0.885830  0.021480
    H   H12  0.328590  0.788750  0.946910  0.002940
    O   O7   0.164480  0.457510  0.909280  -0.152276
    C   C35  0.163800  0.497280  0.820060  -0.100027
    H   H13  0.102160  0.540500  0.830490  0.053491
    H   H14  0.162400  0.452740  0.768570  0.076409
    H   H15  0.226140  0.526960  0.788480  0.065072
    O   O8   0.140070  0.619720  0.236620  -0.343190
    C   C36  0.044020  0.631740  0.279950  0.128655
    H   H16  0.011490  0.670710  0.232980  0.002508
    H   H17  0.015030  0.574240  0.294060  0.021304
    H   H18  0.028840  0.660960  0.349810  0.035780
    H   H19  0.174980  0.990170  0.956460  0.134996
    H   H20  0.167900  0.618310  0.909240  0.147529
    H   H21  0.165130  0.469040  0.223560  0.127898
    H   H22  0.172220  0.840900  0.270780  0.147804
    H   H23  0.170310  0.743550  0.981670  0.134579
    H   H24  0.169820  0.715650  0.198350  0.134474
    C   C37  0.176830  0.085390  0.099140  0.677855
    C   C38  0.175160  0.997820  0.106600  -0.243171
    O   O9   0.177400  0.114780  0.176460  -0.568935
    O   O10  0.177370  0.114780  0.016810  -0.547836
    C   C39  0.163290  0.373820  0.080880  0.712653
    C   C40  0.164950  0.461390  0.073420  -0.272505
    O   O11  0.162700  0.344430  0.003560  -0.566317
    O   O12  0.162750  0.344430  0.163210  -0.549298
    C   C41  0.108820  0.283270  0.654110  0.435417
    C   C42  0.108830  0.283270  0.558120  -0.332821
    C   C43  0.231300  0.175940  0.525910  0.420075
    C   C44  0.231290  0.175940  0.621900  -0.327031
    C   C45  0.170050  0.229610  0.685990  -0.078138
    C   C46  0.170070  0.229600  0.494020  -0.073877
    C   C47  0.170080  0.229600  0.389950  0.249162
    C   C48  0.170030  0.229610  0.790070  0.241817
    N   N1   0.295110  0.120010  0.462360  -0.831909
    H   H25  0.299100  0.116510  0.390010  0.380268
    H   H26  0.340260  0.080440  0.487570  0.356126
    N   N2   0.045010  0.339200  0.717660  -0.852747
    H   H27  0.041020  0.342700  0.790010  0.393642
    H   H28  0.999850  0.378770  0.692450  0.361508
    H   H29  0.058980  0.326980  0.532170  0.203870
    H   H30  0.281150  0.132230  0.647850  0.203883
    N   N3   0.170020  0.229610  0.873020  -0.266976
    N   N4   0.170090  0.229600  0.306990  -0.273073
