# Generated by REPEAT Assigner based on pymatgen
data_DB6-cuf_2905
_audit_creation_date              2022-05-24
_audit_creation_method            REPEAT_Assigner
_cell_length_a                    15.625200
_cell_length_b                    16.109300
_cell_length_c                    14.184900
_cell_angle_alpha                 76.813900
_cell_angle_beta                  85.674800
_cell_angle_gamma                 83.868600
_cell_volume                      3451.660974
_symmetry_space_group_name_H-M    P1
_symmetry_Int_Tables_number       1
loop_
    _symmetry_equiv_pos_site_id
    _symmetry_equiv_pos_as_xyz
    1  x,y,z
loop_
    _atom_site_type_symbol
    _atom_site_label
    _atom_site_fract_x
    _atom_site_fract_y
    _atom_site_fract_z
    _atom_type_partial_charge
    Cu  Cu1  0.137070  0.151950  0.110860  0.627242
    Cu  Cu2  0.181420  0.110950  0.292040  0.586523
    C   C1   0.511560  0.179380  0.982310  -0.228720
    C   C2   0.425220  0.170610  0.013750  -0.017746
    C   C3   0.466110  0.132820  0.180770  0.199776
    C   C4   0.552460  0.141590  0.149350  -0.016518
    C   C5   0.575180  0.164860  0.050120  0.029313
    C   C6   0.616070  0.127070  0.217160  0.052008
    C   C7   0.702420  0.135830  0.185740  0.054378
    C   C8   0.725150  0.159100  0.086520  -0.309889
    C   C9   0.661520  0.173620  0.018710  0.272148
    C   C10  0.593350  0.103790  0.316380  -0.305934
    C   C11  0.656970  0.089280  0.384190  0.268712
    C   C12  0.743310  0.098040  0.352780  0.008028
    C   C13  0.766040  0.121310  0.253550  -0.007435
    C   C14  0.806930  0.083520  0.420590  -0.159053
    C   C15  0.893280  0.092280  0.389170  -0.179599
    C   C16  0.852380  0.130070  0.222140  0.190634
    F   F1   0.685230  0.192700  0.922530  -0.182459
    F   F2   0.634160  0.063290  0.479970  -0.185111
    F   F3   0.429840  0.136700  0.269610  -0.108800
    F   F4   0.882140  0.175510  0.135660  -0.108385
    H   H1   0.795450  0.166230  0.060940  0.170419
    H   H2   0.530060  0.198330  0.901510  0.146565
    H   H3   0.373420  0.182430  0.958520  0.093100
    H   H4   0.523040  0.096660  0.341960  0.179780
    H   H5   0.788430  0.064570  0.501380  0.140935
    H   H6   0.945080  0.080460  0.444390  0.144349
    C   C17  0.007900  0.124870  0.256510  0.447934
    C   C18  0.916000  0.115550  0.289950  -0.027484
    O   O1   0.019100  0.146150  0.165080  -0.437232
    O   O2   0.058370  0.109850  0.325500  -0.389725
    C   C19  0.310590  0.138020  0.146390  0.522906
    C   C20  0.402490  0.147340  0.112950  -0.139868
    O   O3   0.299390  0.116740  0.237810  -0.406709
    O   O4   0.260120  0.153040  0.077400  -0.429191
    C   C21  0.139560  0.693760  0.117660  0.281488
    C   C22  0.138050  0.606920  0.118210  -0.189070
    C   C23  0.178940  0.569130  0.285250  0.300983
    C   C24  0.180450  0.655980  0.284690  -0.203907
    C   C25  0.160760  0.718290  0.200890  -0.068504
    C   C26  0.157730  0.544600  0.202000  -0.084679
    C   C27  0.156090  0.450430  0.202600  0.088641
    C   C28  0.162400  0.812470  0.200290  0.069484
    O   O5   0.198140  0.503020  0.367420  -0.269141
    C   C29  0.220110  0.525210  0.453880  0.017876
    H   H7   0.165720  0.564680  0.481920  0.037532
    H   H8   0.279550  0.559230  0.440500  0.038960
    H   H9   0.232940  0.465570  0.509970  0.079268
    O   O6   0.120350  0.759870  0.035480  -0.283345
    C   C30  0.098390  0.737690  0.949020  0.065357
    H   H10  0.038940  0.703670  0.962400  0.032784
    H   H11  0.152770  0.698210  0.920980  0.031101
    H   H12  0.085550  0.797330  0.892930  0.056008
    H   H13  0.120790  0.586950  0.050420  0.140110
    H   H14  0.197710  0.675940  0.352480  0.148404
    C   C31  0.165320  0.979950  0.199230  0.828045
    C   C32  0.163700  0.887520  0.199810  -0.358258
    O   O7   0.185500  0.992820  0.279240  -0.550277
    O   O8   0.146230  0.029120  0.118830  -0.499776
    C   C33  0.153170  0.282940  0.203670  0.799145
    C   C34  0.154790  0.375370  0.203080  -0.368660
    O   O9   0.133000  0.270070  0.123650  -0.521878
    O   O10  0.172250  0.233780  0.284070  -0.459420
    C   C35  0.304180  0.997450  0.543720  -0.202238
    C   C36  0.280580  0.019280  0.447270  -0.021981
    C   C37  0.168230  0.123150  0.488130  0.233837
    C   C38  0.191830  0.101330  0.584580  -0.016685
    C   C39  0.259810  0.038480  0.612370  0.006684
    C   C40  0.147450  0.142360  0.653230  0.049973
    C   C41  0.171040  0.120540  0.749670  0.071969
    C   C42  0.239020  0.057690  0.777470  -0.318697
    C   C43  0.283400  0.016660  0.708810  0.282795
    C   C44  0.079470  0.205210  0.625440  -0.324975
    C   C45  0.035090  0.246240  0.694090  0.277100
    C   C46  0.058690  0.224420  0.790530  0.086069
    C   C47  0.126660  0.161570  0.818330  -0.082126
    C   C48  0.014300  0.265450  0.859190  -0.225494
    C   C49  0.037900  0.243630  0.955630  -0.040988
    C   C50  0.150250  0.139750  0.914770  0.232271
    O   O11  0.236850  0.113020  0.938570  -0.174965
    C   C51  0.251800  0.039340  0.016690  0.064753
    H   H15  0.304080  0.994930  0.994010  -0.073628
    H   H16  0.193620  0.003700  0.038220  0.073635
    H   H17  0.274960  0.058690  0.079770  0.042404
    O   O12  0.966140  0.308900  0.666950  -0.323786
    C   C52  0.896130  0.282120  0.625340  0.081992
    H   H18  0.894420  0.314630  0.547490  0.030220
    H   H19  0.834870  0.301330  0.662910  0.053318
    H   H20  0.900060  0.211560  0.632610  0.008127
    O   O13  0.136790  0.207990  0.444360  -0.209035
    C   C53  0.061710  0.218900  0.388240  0.004800
    H   H21  0.014490  0.268560  0.409840  -0.013931
    H   H22  0.029300  0.158930  0.399270  0.010283
    H   H23  0.079160  0.243110  0.310330  0.105763
    O   O14  0.350730  0.950570  0.733240  -0.283905
    C   C54  0.384340  0.932830  0.827240  0.045456
    H   H24  0.442400  0.886650  0.828490  0.059697
    H   H25  0.336580  0.902300  0.882790  0.049103
    H   H26  0.403620  0.992100  0.844020  0.050932
    H   H27  0.258220  0.039920  0.856000  0.154608
    H   H28  0.359540  0.946270  0.566340  0.119950
    H   H29  0.316720  0.985860  0.391380  0.128321
    H   H30  0.060260  0.222970  0.546910  0.197869
    H   H31  0.958960  0.316630  0.836560  0.134119
    H   H32  0.001760  0.277040  0.011530  0.139974
    N   N1   0.105870  0.180780  0.983420  -0.072550
    N   N2   0.212610  0.082110  0.419480  -0.064203
