# Generated by REPEAT Assigner based on pymatgen
data_DB6-cuf_10291
_audit_creation_date              2022-05-24
_audit_creation_method            REPEAT_Assigner
_cell_length_a                    15.944500
_cell_length_b                    10.654600
_cell_length_c                    9.130310
_cell_angle_alpha                 90.001100
_cell_angle_beta                  90.010300
_cell_angle_gamma                 83.988100
_cell_volume                      1542.547087
_symmetry_space_group_name_H-M    P1
_symmetry_Int_Tables_number       1
loop_
    _symmetry_equiv_pos_site_id
    _symmetry_equiv_pos_as_xyz
    1  x,y,z
loop_
    _atom_site_type_symbol
    _atom_site_label
    _atom_site_fract_x
    _atom_site_fract_y
    _atom_site_fract_z
    _atom_type_partial_charge
    Cu  Cu1  0.214000  0.142390  0.980940  0.624956
    Cu  Cu2  0.214020  0.142380  0.269030  0.613650
    C   C1   0.741880  0.143120  0.986270  0.176061
    C   C2   0.694540  0.038170  0.055590  0.153031
    C   C3   0.796480  0.144560  0.124980  0.367020
    C   C4   0.677650  0.245080  0.055630  0.170512
    C   C5   0.631540  0.140210  0.124990  0.373227
    C   C6   0.750370  0.039550  0.194300  0.178291
    C   C7   0.733480  0.246560  0.194320  0.159350
    C   C8   0.686170  0.141580  0.263750  0.166612
    C   C9   0.891500  0.147070  0.124970  -0.322100
    C   C10  0.536530  0.137690  0.125010  -0.321886
    F   F1   0.673410  0.931340  0.984460  -0.209786
    F   F2   0.639300  0.350400  0.984580  -0.210595
    F   F3   0.656450  0.140820  0.405920  -0.213477
    F   F4   0.771580  0.143890  0.844070  -0.215520
    F   F5   0.754540  0.353470  0.265420  -0.210370
    F   F6   0.788800  0.934220  0.265300  -0.211637
    C   C11  0.060490  0.151550  0.124970  0.738637
    C   C12  0.967230  0.149070  0.124960  -0.100374
    O   O1   0.091780  0.152390  0.997440  -0.507068
    O   O2   0.091800  0.152380  0.252500  -0.541015
    C   C13  0.367530  0.133210  0.125000  0.749410
    C   C14  0.460790  0.135690  0.125020  -0.103210
    O   O3   0.336240  0.132380  0.252530  -0.515032
    O   O4   0.336220  0.132380  0.997470  -0.547502
    C   C15  0.215160  0.707880  0.992190  0.316466
    C   C16  0.212840  0.576880  0.992200  -0.228602
    C   C17  0.212860  0.576900  0.257790  0.333923
    C   C18  0.215190  0.707890  0.257780  -0.248225
    F   F7   0.216140  0.771550  0.863890  -0.195794
    F   F8   0.211970  0.513140  0.386100  -0.198471
    H   H1   0.211900  0.523570  0.884070  0.155040
    H   H2   0.216130  0.761210  0.365920  0.159432
    C   C19  0.218800  0.912780  0.124980  0.527317
    C   C20  0.216330  0.773370  0.124980  -0.125788
    O   O5   0.219640  0.959570  0.252510  -0.381470
    O   O6   0.219620  0.959570  0.997450  -0.390388
    C   C21  0.209220  0.371980  0.124990  0.547463
    C   C22  0.211690  0.511390  0.125000  -0.151132
    O   O7   0.208370  0.325200  0.997460  -0.394337
    O   O8   0.208400  0.325200  0.252520  -0.395133
    C   C23  0.157510  0.227920  0.701620  0.341096
    C   C24  0.157530  0.227920  0.548290  -0.139313
    C   C25  0.270510  0.056840  0.548360  0.337091
    C   C26  0.270500  0.056850  0.701690  -0.138327
    N   N1   0.100280  0.315870  0.780030  -0.754698
    H   H3   0.099570  0.316920  0.894380  0.345048
    H   H4   0.057790  0.380210  0.724160  0.345303
    N   N2   0.329790  0.971910  0.470060  -0.753427
    H   H5   0.332330  0.974540  0.355830  0.345980
    H   H6   0.379570  0.921800  0.526380  0.342379
    H   H7   0.111540  0.297580  0.485860  0.177121
    H   H8   0.316500  0.987180  0.764130  0.178083
    N   N3   0.213990  0.142390  0.778320  -0.101548
    N   N4   0.214020  0.142380  0.471650  -0.096275
