# Generated by REPEAT Assigner based on pymatgen
data_DB6-cuf_7122
_audit_creation_date              2022-05-24
_audit_creation_method            REPEAT_Assigner
_cell_length_a                    14.971500
_cell_length_b                    9.065200
_cell_length_c                    14.586300
_cell_angle_alpha                 89.999400
_cell_angle_beta                  90.007900
_cell_angle_gamma                 84.312000
_cell_volume                      1969.900300
_symmetry_space_group_name_H-M    P1
_symmetry_Int_Tables_number       1
loop_
    _symmetry_equiv_pos_site_id
    _symmetry_equiv_pos_as_xyz
    1  x,y,z
loop_
    _atom_site_type_symbol
    _atom_site_label
    _atom_site_fract_x
    _atom_site_fract_y
    _atom_site_fract_z
    _atom_type_partial_charge
    Cu  Cu1  0.316750  0.046500  0.008170  0.797809
    Cu  Cu2  0.316780  0.046490  0.188490  0.948077
    C   C1   0.007350  0.052420  0.181460  0.214527
    C   C2   0.914030  0.049530  0.181450  -0.185946
    C   C3   0.867360  0.048080  0.098330  -0.146019
    C   C4   0.914010  0.049540  0.015210  0.280558
    C   C5   0.007330  0.052450  0.015220  -0.194775
    C   C6   0.719500  0.043480  0.015210  -0.055571
    C   C7   0.626180  0.040570  0.015200  -0.006847
    C   C8   0.626200  0.040560  0.181450  0.286129
    C   C9   0.719520  0.043460  0.181450  -0.295924
    C   C10  0.766170  0.044920  0.098330  0.185627
    O   O1   0.574790  0.040400  0.262880  -0.126297
    C   C11  0.618080  0.046300  0.349880  -0.149433
    H   H1   0.566580  0.046250  0.404520  0.107597
    H   H2   0.651300  0.150090  0.356460  0.066607
    H   H3   0.666910  0.947070  0.359950  0.069429
    O   O2   0.059240  0.052940  0.262580  -0.112541
    C   C12  0.016240  0.047260  0.349720  -0.143827
    H   H4   0.967280  0.146380  0.359730  0.060748
    H   H5   0.067870  0.047530  0.404220  0.094406
    H   H6   0.983020  0.943470  0.356510  0.070550
    O   O3   0.882340  0.971460  0.939820  -0.205455
    C   C13  0.912280  0.005830  0.849670  -0.070871
    H   H7   0.862130  0.974500  0.799080  0.067284
    H   H8   0.976970  0.939860  0.833970  0.057667
    H   H9   0.918510  0.126440  0.842060  0.067875
    O   O4   0.745590  0.123270  0.938730  -0.193519
    C   C14  0.740620  0.281080  0.950110  0.020796
    H   H10  0.714950  0.318930  0.018670  0.048230
    H   H11  0.808460  0.318070  0.940510  0.024380
    H   H12  0.695320  0.334550  0.896980  0.035737
    H   H13  0.876050  0.048360  0.249140  0.124365
    H   H14  0.757520  0.044630  0.249130  0.133707
    H   H15  0.588180  0.039400  0.947520  0.105053
    H   H16  0.045310  0.053620  0.947530  0.140035
    C   C15  0.153320  0.056970  0.098340  0.640026
    C   C16  0.054000  0.053880  0.098340  -0.152342
    O   O5   0.186630  0.058010  0.018510  -0.510069
    O   O6   0.186660  0.058010  0.178160  -0.563725
    C   C17  0.480210  0.036020  0.098320  0.616836
    C   C18  0.579530  0.039110  0.098320  -0.218709
    O   O7   0.446900  0.034970  0.178150  -0.544776
    O   O8   0.446870  0.034990  0.018500  -0.507356
    C   C19  0.321120  0.776780  0.098330  0.824221
    C   C20  0.318030  0.613000  0.098330  -0.195854
    O   O9   0.322170  0.831730  0.178160  -0.575909
    O   O10  0.322140  0.831740  0.018500  -0.571322
    C   C21  0.312410  0.316210  0.098330  0.811791
    C   C22  0.315510  0.479990  0.098330  -0.187164
    O   O11  0.311380  0.261250  0.178160  -0.580037
    O   O12  0.311360  0.261260  0.018500  -0.562883
    C   C23  0.256880  0.146880  0.646310  0.275301
    C   C24  0.256900  0.146880  0.550330  -0.250106
    C   C25  0.376650  0.946110  0.550360  0.321437
    C   C26  0.376640  0.946120  0.646340  -0.300170
    C   C27  0.316750  0.046500  0.694310  0.053404
    C   C28  0.316770  0.046490  0.502350  -0.021595
    C   C29  0.316790  0.046490  0.398280  0.227229
    C   C30  0.316740  0.046500  0.798380  0.162863
    F   F1   0.198530  0.244710  0.692030  -0.161780
    F   F2   0.435340  0.847710  0.505390  -0.163570
    H   H17  0.208150  0.228630  0.511250  0.205666
    H   H18  0.425390  0.864360  0.685420  0.215963
    N   N1   0.316730  0.046500  0.881330  -0.172390
    N   N2   0.316800  0.046490  0.315320  -0.235144
