# Generated by REPEAT Assigner based on pymatgen
data_DB6-pMOF_235
_audit_creation_date              2022-05-24
_audit_creation_method            REPEAT_Assigner
_cell_length_a                    17.019300
_cell_length_b                    14.971500
_cell_length_c                    13.448300
_cell_angle_alpha                 90.001100
_cell_angle_beta                  93.886700
_cell_angle_gamma                 83.503300
_cell_volume                      3396.749995
_symmetry_space_group_name_H-M    P1
_symmetry_Int_Tables_number       1
loop_
    _symmetry_equiv_pos_site_id
    _symmetry_equiv_pos_as_xyz
    1  x,y,z
loop_
    _atom_site_type_symbol
    _atom_site_label
    _atom_site_fract_x
    _atom_site_fract_y
    _atom_site_fract_z
    _atom_type_partial_charge
    Cu  Cu1  0.192290  0.166670  0.030410  0.775595
    Cu  Cu2  0.192320  0.166660  0.226000  0.742629
    C   C1   0.919390  0.170950  0.194990  -0.093358
    C   C2   0.837100  0.169400  0.187940  -0.217699
    C   C3   0.795950  0.168630  0.094260  0.304744
    C   C4   0.837090  0.169410  0.007630  -0.273477
    C   C5   0.919370  0.170960  0.014680  -0.051189
    C   C6   0.547510  0.163940  0.068460  -0.224243
    C   C7   0.465230  0.162380  0.061420  -0.088304
    C   C8   0.465240  0.162370  0.241730  -0.048102
    C   C9   0.547530  0.163920  0.248770  -0.280087
    C   C10  0.588660  0.164710  0.162140  0.313332
    C   C11  0.711850  0.167040  0.087060  -0.236019
    C   C12  0.672760  0.166300  0.169350  -0.240046
    H   H1   0.952880  0.171570  0.271280  0.098683
    H   H2   0.803620  0.168770  0.258490  0.124825
    H   H3   0.581030  0.164550  0.325050  0.127526
    H   H4   0.431750  0.161740  0.312270  0.097086
    H   H5   0.431730  0.161760  0.985130  0.097847
    H   H6   0.580990  0.164570  0.997920  0.125797
    H   H7   0.803580  0.168790  0.931360  0.126035
    H   H8   0.952860  0.171590  0.944140  0.097806
    H   H9   0.706270  0.166940  0.245620  0.139813
    H   H10  0.678340  0.166410  0.010780  0.139281
    C   C13  0.048090  0.173380  0.115860  0.635338
    C   C14  0.960520  0.171730  0.108370  -0.062256
    O   O1   0.077470  0.173940  0.031790  -0.545312
    O   O2   0.077490  0.173930  0.204960  -0.526638
    C   C15  0.336520  0.159950  0.140550  0.637444
    C   C16  0.424090  0.161600  0.148040  -0.064942
    O   O3   0.307150  0.159380  0.224620  -0.541607
    O   O4   0.307120  0.159400  0.051450  -0.532343
    C   C17  0.195460  0.857190  0.038310  -0.076973
    C   C18  0.193920  0.763890  0.038190  -0.198030
    C   C19  0.193150  0.717240  0.128270  0.113775
    C   C20  0.193940  0.763900  0.218500  -0.199268
    C   C21  0.195500  0.857190  0.218630  -0.075378
    C   C22  0.190700  0.569440  0.218220  -0.198009
    C   C23  0.189150  0.476140  0.218100  -0.078460
    C   C24  0.189120  0.476140  0.037780  -0.075544
    C   C25  0.190680  0.569440  0.037910  -0.200515
    C   C26  0.191470  0.616080  0.128140  0.118650
    H   H11  0.196080  0.895160  0.964950  0.092880
    H   H12  0.193280  0.725920  0.964720  0.120781
    H   H13  0.191290  0.607420  0.964550  0.121633
    H   H14  0.188490  0.438160  0.964320  0.092692
    H   H15  0.188530  0.438170  0.291460  0.093328
    H   H16  0.191350  0.607420  0.291700  0.121256
    H   H17  0.193330  0.725910  0.291850  0.120646
    H   H18  0.196130  0.895170  0.292090  0.092140
    C   C27  0.197910  0.003130  0.128680  0.585919
    C   C28  0.196250  0.903830  0.128530  -0.020040
    O   O5   0.198470  0.036440  0.215310  -0.519308
    O   O6   0.198450  0.036450  0.042140  -0.522993
    C   C29  0.186700  0.330200  0.127730  0.589627
    C   C30  0.188360  0.429500  0.127880  -0.023317
    O   O7   0.186130  0.296890  0.041100  -0.524558
    O   O8   0.186170  0.296880  0.214270  -0.518355
    C   C31  0.138830  0.227660  0.836210  0.124521
    C   C32  0.138840  0.227660  0.732100  -0.296682
    C   C33  0.192300  0.166670  0.684640  0.191143
    C   C34  0.245770  0.105680  0.741290  -0.290547
    C   C35  0.245760  0.105680  0.845390  0.119678
    C   C36  0.245780  0.105670  0.524310  -0.294972
    C   C37  0.245790  0.105670  0.420210  0.120366
    C   C38  0.138860  0.227650  0.411020  0.115870
    C   C39  0.138850  0.227660  0.515120  -0.292363
    C   C40  0.192310  0.166660  0.571770  0.188902
    H   H19  0.095280  0.277330  0.874840  0.105873
    H   H20  0.095310  0.277340  0.686000  0.140463
    H   H21  0.095310  0.277320  0.553770  0.140225
    H   H22  0.095330  0.277330  0.364910  0.107055
    H   H23  0.289330  0.056000  0.381570  0.106669
    H   H24  0.289320  0.056000  0.570420  0.140537
    H   H25  0.289300  0.056020  0.702640  0.138548
    H   H26  0.289290  0.056010  0.891500  0.106533
    N   N1   0.192280  0.166670  0.892850  -0.139023
    N   N2   0.192330  0.166660  0.363560  -0.123532
