# Generated by REPEAT Assigner based on pymatgen
data_DB7-ddmof_5786
_audit_creation_date              2022-05-24
_audit_creation_method            REPEAT_Assigner
_cell_length_a                    20.157340
_cell_length_b                    21.063910
_cell_length_c                    37.803780
_cell_angle_alpha                 60.692250
_cell_angle_beta                  119.041690
_cell_angle_gamma                 133.322490
_cell_volume                      9895.471664
_symmetry_space_group_name_H-M    P1
_symmetry_Int_Tables_number       1
loop_
    _symmetry_equiv_pos_site_id
    _symmetry_equiv_pos_as_xyz
    1  x,y,z
loop_
    _atom_site_type_symbol
    _atom_site_label
    _atom_site_fract_x
    _atom_site_fract_y
    _atom_site_fract_z
    _atom_type_partial_charge
    C   C1    0.711110  0.331800  0.010850  0.103058
    C   C2    0.776720  0.426600  0.001420  -0.269319
    C   C3    0.778590  0.478200  0.015610  0.191736
    C   C4    0.711910  0.436740  0.036500  -0.270350
    C   C5    0.635230  0.347320  0.037600  0.123050
    C   C6    0.637920  0.292560  0.028020  -0.254607
    H   H1    0.713620  0.476980  0.047410  0.119314
    H   H2    0.583270  0.220860  0.033510  0.126800
    C   C7    0.668710  0.193190  0.546000  0.023144
    C   C8    0.579060  0.168320  0.538810  -0.213989
    C   C9    0.569400  0.216780  0.549070  0.089008
    C   C10   0.648500  0.292500  0.564240  -0.227783
    C   C11   0.737980  0.319920  0.570150  0.119465
    C   C12   0.748630  0.270140  0.561390  -0.169562
    H   H3    0.517080  0.109880  0.526580  0.114601
    H   H4    0.640440  0.331170  0.570960  0.120173
    C   C13   0.279660  0.708510  0.140210  0.137656
    C   C14   0.371620  0.734010  0.151640  -0.256154
    C   C15   0.387020  0.681850  0.148300  0.120637
    C   C16   0.311590  0.597900  0.140170  -0.292638
    C   C17   0.220090  0.570850  0.128740  0.290693
    C   C18   0.203240  0.626330  0.128170  -0.398467
    H   H5    0.431230  0.796520  0.160990  0.111024
    H   H6    0.324270  0.556310  0.139260  0.145458
    H   H7    0.132340  0.607020  0.117570  0.177658
    C   C19   0.268690  0.595270  0.673530  0.033483
    C   C20   0.359510  0.615570  0.691280  -0.157566
    C   C21   0.375050  0.556400  0.695220  -0.000679
    C   C22   0.298400  0.472650  0.686510  -0.196152
    C   C23   0.211430  0.457140  0.663490  0.181894
    C   C24   0.195010  0.517050  0.658000  -0.255701
    H   H8    0.418160  0.678490  0.700400  0.094580
    H   H9    0.309360  0.424020  0.692720  0.145872
    H   H10   0.126910  0.504280  0.641080  0.111494
    Co  Co1   0.072640  0.103380  0.016700  1.267451
    Co  Co2   0.160610  0.015700  0.020700  1.201857
    C   C25   0.272290  0.204140  0.023140  1.145651
    O   O1    0.030000  0.176080  0.006210  -0.561334
    C   C26   0.015250  0.244360  0.088810  1.058060
    C   C27   0.745580  0.857540  0.134540  0.967134
    C   C28   0.216370  0.960970  0.111080  0.887675
    O   O2    0.007520  0.991270  0.173670  -0.703228
    O   O3    0.248130  0.028400  0.079120  -0.692453
    O   O4    0.149590  0.940540  0.122370  -0.690865
    O   O5    0.049000  0.220400  0.079080  -0.725939
    O   O6    0.076690  0.013700  0.039280  -0.698829
    O   O7    0.238590  0.154640  0.999290  -0.809920
    O   O8    0.215330  0.191140  0.037650  -0.765836
    Co  Co3   0.014150  0.949560  0.552550  1.249430
    Co  Co4   0.095260  0.858890  0.553170  1.260597
    C   C29   0.198040  0.055600  0.537510  0.815084
    C   C30   0.038890  0.123990  0.644560  1.023668
    C   C31   0.741210  0.748580  0.685680  0.836106
    C   C32   0.195690  0.843250  0.640480  0.852621
    O   O9    0.208410  0.897640  0.603360  -0.641546
    O   O10   0.141350  0.829880  0.657460  -0.671198
    O   O11   0.046190  0.106190  0.617830  -0.695608
    O   O12   0.029000  0.866360  0.578250  -0.713713
    O   O13   0.154590  0.992610  0.519380  -0.668713
    O   O14   0.155890  0.046660  0.559020  -0.679347
    C   C33   0.138000  0.081980  0.787390  -0.024693
    C   C34   0.135410  0.039040  0.767070  0.024384
    C   C35   0.190680  0.091110  0.736750  0.419521
    C   C36   0.167930  0.174200  0.768920  0.321574
    N   N1    0.235030  0.132800  0.712520  -0.407688
    N   N2    0.191840  0.247880  0.754150  -0.355634
    C   C37   0.056320  0.055400  0.293830  -0.027163
    C   C38   0.009410  0.000040  0.236180  -0.086859
    C   C39   0.069270  0.070490  0.256260  -0.074553
    C   C40   0.144580  0.158240  0.238340  0.442215
    C   C41   0.038270  0.911320  0.431350  -0.027329
    C   C42   0.043370  0.931040  0.391040  -0.043987
    C   C43   0.099850  0.890110  0.467110  0.441502
    C   C44   0.110350  0.931240  0.385840  0.360115
    C   C45   0.112720  0.129570  0.312610  0.322295
    N   N3    0.149150  0.873020  0.495320  -0.444278
    N   N4    0.163660  0.931430  0.381650  -0.379872
    N   N5    0.204730  0.228250  0.224030  -0.395662
    N   N6    0.157680  0.188680  0.327650  -0.364305
    C   C46   0.062910  0.304400  0.658790  -0.157287
    C   C47   0.141580  0.381870  0.642730  0.123766
    C   C48   0.169170  0.375980  0.617180  -0.254999
    C   C49   0.131700  0.291560  0.615240  0.023178
    C   C50   0.062550  0.212990  0.636810  -0.299368
    C   C51   0.023180  0.220290  0.655680  0.086618
    H   H11   0.038310  0.308090  0.677160  0.097533
    H   H12   0.227260  0.436040  0.602930  0.132141
    H   H13   0.160410  0.287480  0.599150  0.123519
    C   C52   0.545820  0.630700  0.731060  -0.138871
    C   C53   0.470280  0.588880  0.699170  0.196589
    C   C54   0.485890  0.579650  0.670020  -0.235012
    C   C55   0.576890  0.618900  0.670570  0.008604
    C   C56   0.653410  0.671470  0.698780  -0.119190
    C   C57   0.637120  0.671190  0.731070  -0.161016
    H   H14   0.534410  0.635010  0.754780  0.130557
    H   H15   0.428020  0.545980  0.645640  0.131527
    H   H16   0.588460  0.616770  0.646130  0.093568
    H   H17   0.695830  0.709650  0.753820  0.145552
    C   C58   0.177510  0.629090  0.680490  -0.193437
    C   C59   0.253070  0.659750  0.668360  0.190325
    C   C60   0.316280  0.752620  0.652770  -0.156438
    C   C61   0.303570  0.813630  0.648740  -0.126465
    C   C62   0.224950  0.782880  0.658280  -0.137022
    C   C63   0.163560  0.690320  0.675510  -0.000716
    H   H18   0.128990  0.558000  0.693270  0.116955
    H   H19   0.374470  0.777590  0.642990  0.124425
    H   H20   0.352080  0.884680  0.635820  0.120061
    H   H21   0.102430  0.665090  0.682990  0.097243
    C   C64   0.084830  0.329030  0.139100  -0.034841
    C   C65   0.075000  0.330500  0.099360  -0.110640
    C   C66   0.095160  0.408990  0.067190  -0.102746
    C   C67   0.127850  0.485860  0.075110  -0.126542
    C   C68   0.143820  0.486010  0.115660  0.050847
    C   C69   0.116070  0.405260  0.146780  -0.203032
    H   H22   0.064860  0.267510  0.163690  0.104003
    H   H23   0.083110  0.409770  0.035800  0.118524
    H   H24   0.147780  0.547410  0.050540  0.099727
    H   H25   0.126730  0.403880  0.178070  0.130735
    C   C70   0.496550  0.762450  0.104730  -0.262962
    C   C71   0.478560  0.721840  0.144490  0.225819
    C   C72   0.540760  0.705640  0.179110  -0.196466
    C   C73   0.624330  0.736970  0.174520  -0.048788
    C   C74   0.647230  0.786800  0.135480  -0.193552
    C   C75   0.579660  0.792930  0.100170  -0.013085
    H   H26   0.446290  0.770860  0.077440  0.133272
    H   H27   0.524970  0.669870  0.209590  0.119213
    H   H28   0.675060  0.729750  0.201940  0.127026
    H   H29   0.595580  0.829340  0.069690  0.123064
    C   C76   0.329610  0.866070  0.121020  -0.147841
    C   C77   0.265490  0.773200  0.136170  0.154940
    C   C78   0.190690  0.743170  0.148700  -0.189424
    C   C79   0.177540  0.805020  0.143700  0.011885
    C   C80   0.241500  0.897800  0.127890  -0.130915
    C   C81   0.320600  0.927650  0.119230  -0.127367
    H   H30   0.386020  0.890750  0.110010  0.114169
    H   H31   0.141770  0.672190  0.161430  0.109239
    H   H32   0.116110  0.780400  0.150650  0.097370
    H   H33   0.371870  0.998920  0.108030  0.122928
    C   C82   0.626040  0.040750  0.561110  -0.196367
    C   C83   0.678370  0.133330  0.541970  0.176697
    H   H34   0.569990  0.010580  0.574180  0.139924
    C   C84   0.419640  0.198650  0.507030  -0.134755
    C   C85   0.476570  0.185990  0.546070  0.186000
    C   C86   0.448410  0.151740  0.582520  -0.215479
    C   C87   0.360030  0.122550  0.579780  -0.061443
    C   C88   0.298250  0.124370  0.540640  -0.054245
    C   C89   0.331200  0.169230  0.504350  -0.156429
    H   H35   0.442980  0.229260  0.478790  0.112829
    H   H36   0.494010  0.145530  0.612910  0.122684
    H   H37   0.336200  0.090330  0.608040  0.157302
    H   H38   0.284840  0.173490  0.473930  0.124385
    C   C90   0.647030  0.185450  0.001430  -0.109299
    C   C91   0.723530  0.274150  0.005720  0.097767
    C   C92   0.662810  0.126260  0.005900  -0.166275
    H   H39   0.575850  0.161780  0.995290  0.109661
    H   H40   0.604830  0.056050  0.006610  0.134671
    C   C93   0.507190  0.365440  0.006840  -0.191016
    C   C94   0.545870  0.319270  0.038250  0.171970
    C   C95   0.505030  0.254910  0.072310  -0.206692
    C   C96   0.420550  0.230240  0.072410  -0.059963
    C   C97   0.373880  0.265200  0.037180  -0.208729
    C   C98   0.423450  0.340800  0.007420  -0.014871
    H   H41   0.541220  0.419220  0.981610  0.136585
    H   H42   0.537770  0.223390  0.098260  0.121330
    H   H43   0.387680  0.178660  0.098170  0.144146
    H   H44   0.391940  0.373960  0.982050  0.090388
    O   O15   0.752680  0.826110  0.667000  -0.633435
    C   C99   0.104100  0.031820  0.824100  -0.119339
    C   C100  0.088060  0.068900  0.842020  0.165964
    C   C101  0.147160  0.156380  0.887910  0.079943
    C   C102  0.164420  0.135910  0.864320  -0.135199
    C   C103  0.219440  0.237710  0.902600  0.329990
    C   C104  0.259970  0.178580  0.865540  0.404585
    N   N7    0.277270  0.303270  0.914000  -0.352425
    N   N8    0.336300  0.212630  0.866530  -0.400265
    C   C105  0.652150  0.988850  0.567150  -0.067950
    H   H45   0.616720  0.919600  0.585290  0.105749
    H   H46   0.752560  0.608010  0.962420  0.107834
    Co  Co5   0.028270  0.931890  0.079960  1.229396
    O   O16   0.091190  0.877880  0.042860  -0.689061
    C   C106  0.058440  0.097840  0.896590  -0.211219
    C   C107  0.054770  0.068230  0.940380  0.876837
    O   O17   0.045020  0.108780  0.953940  -0.605231
    O   O18   0.755280  0.032840  0.063380  -0.673636
    C   C108  0.733780  0.030150  0.556440  -0.107086
    C   C109  0.747820  0.169770  0.523650  -0.187764
    C   C110  0.753680  0.157370  0.010550  -0.129943
    O   O19   0.062040  0.001820  0.965190  -0.652425
    O   O20   0.044990  0.727280  0.586330  -0.672216
    H   H47   0.785130  0.239760  0.506610  0.129362
    H   H48   0.053750  0.713170  0.069220  0.139941
    C   C111  0.774880  0.117840  0.530590  -0.033520
    C   C112  0.776690  0.093000  0.027750  0.867862
    C   C113  0.000100  0.821310  0.038880  0.846210
    C   C114  0.079760  0.944660  0.777140  -0.087141
    C   C115  0.793940  0.000370  0.585040  0.787815
    C   C116  0.076540  0.942230  0.841450  0.098781
    C   C117  0.063100  0.898090  0.817480  -0.066122
    C   C118  0.059180  0.895220  0.882950  0.290196
    N   N9    0.045270  0.857790  0.916080  -0.369373
    O   O21   0.031350  0.894490  0.717600  -0.695468
    C   C119  0.025570  0.803700  0.832750  0.365391
    N   N10   0.788260  0.925480  0.409460  -0.352209
    O   O22   0.786830  0.855390  0.117210  -0.618419
    O   O23   0.013030  0.063570  0.679120  -0.723740
    C   C120  0.008140  0.899130  0.742920  0.918245
    O   O24   0.791710  0.923490  0.151080  -0.841161
    Co  Co6   0.006470  0.800670  0.625660  1.214029
    O   O25   0.798420  0.735640  0.686540  -0.615579
    C   C121  0.992330  0.022200  0.190310  0.957855
    H   H49   0.806840  0.358310  0.644460  0.113241
    C   C122  0.988270  0.968100  0.313130  0.053485
    C   C123  0.983450  0.949880  0.355690  0.092623
    H   H50   0.849120  0.475390  0.520180  0.112067
    C   C124  0.972560  0.910790  0.436740  -0.089574
    C   C125  0.961830  0.882160  0.479690  0.684366
    O   O26   0.973320  0.819860  0.507480  -0.604619
    O   O27   0.959350  0.930920  0.491450  -0.538133
    O   O28   0.979250  0.026310  0.545110  -0.552146
    C   C126  0.995640  0.029320  0.841140  -0.143112
    C   C127  0.980820  0.041930  0.869450  0.126625
    H   H51   0.965940  0.160280  0.670440  0.039099
    C   C128  0.819260  0.406080  0.581180  0.094055
    C   C129  0.858990  0.482550  0.549190  -0.131358
    N   N11   0.995530  0.728220  0.844930  -0.376085
    O   O29   0.975450  0.082980  0.167280  -0.722747
    C   C130  0.849460  0.575860  0.008750  0.112749
    C   C131  0.819160  0.631600  0.985270  -0.156924
    Co  Co7   0.943440  0.986370  0.597660  1.194094
    N   N12   0.812710  0.733430  0.331720  -0.368782
    H   H52   0.840810  0.751470  0.979060  0.116824
    C   C132  0.916600  0.973880  0.812270  0.408207
    N   N13   0.853610  0.929590  0.789200  -0.419018
    C   C133  0.867720  0.711560  0.995450  -0.055909
    Co  Co8   0.959200  0.115990  0.049600  1.261735
    O   O30   0.926850  0.191480  0.088960  -0.821255
    C   C134  0.937930  0.609210  0.036540  -0.074665
    H   H53   0.963800  0.568340  0.053710  0.060117
    O   O31   0.924960  0.879620  0.732860  -0.716810
    C   C135  0.886670  0.993530  0.872480  0.301862
    N   N14   0.811430  0.954820  0.874940  -0.350255
    C   C136  0.835070  0.416800  0.619060  -0.181532
    C   C137  0.908130  0.576500  0.588610  -0.133383
    C   C138  0.877980  0.501600  0.622510  -0.023304
    H   H54   0.887480  0.508940  0.651390  0.108865
    C   C139  0.987570  0.690000  0.046160  -0.158315
    C   C140  0.949560  0.738500  0.027470  -0.105580
    H   H55   0.825510  0.459910  0.983180  0.117622
    H   H56   0.818250  0.290250  0.567090  0.084629
    Co  Co9   0.927740  0.952940  0.116840  1.227330
    Co  Co10  0.860510  0.056530  0.117720  1.287286
    O   O32   0.915420  0.037760  0.091430  -0.674049
    O   O33   0.957720  0.872630  0.123410  -0.517974
    O   O34   0.966380  0.007750  0.056170  -0.858715
    O   O35   0.837130  0.110290  0.013020  -0.648558
    O   O36   0.957370  0.829870  0.052270  -0.608411
    Co  Co11  0.927500  0.833250  0.668890  1.255493
    C   C141  0.960430  0.666680  0.592980  0.806711
    Co  Co12  0.880860  0.945850  0.675620  1.236298
    O   O37   0.914270  0.917040  0.643460  -0.677547
    O   O38   0.958920  0.754050  0.675640  -0.552300
    O   O39   0.937770  0.869690  0.603840  -0.833075
    O   O40   0.837320  0.018600  0.621790  -0.700417
    O   O41   0.818780  0.974660  0.570870  -0.576259
    O   O42   0.927560  0.682600  0.608320  -0.598949
    C   C142  0.935170  0.895750  0.295190  -0.057573
    C   C143  0.948070  0.911430  0.257440  0.020049
    C   C144  0.867060  0.805460  0.315490  0.320615
    C   C145  0.919280  0.951250  0.360570  -0.058006
    C   C146  0.913290  0.931140  0.401030  0.030236
    C   C147  0.859120  0.972780  0.324000  0.359271
    C   C148  0.843780  0.927990  0.405740  0.347800
    C   C149  0.898920  0.836520  0.240630  0.393148
    N   N15   0.811130  0.989980  0.294770  -0.384534
    N   N16   0.859960  0.776710  0.227270  -0.385169
    H   H57   0.835290  0.149310  0.520280  0.095659
    C   C150  0.901930  0.567190  0.552610  -0.052308
    H   H58   0.929110  0.625520  0.526970  0.084745
    C   C151  0.813550  0.305930  0.007800  -0.163293
    C   C152  0.826540  0.249410  0.007120  0.042308
    H   H59   0.874300  0.372780  0.011860  0.120768
    H   H60   0.895800  0.275500  0.007990  0.052706
