# Generated by REPEAT Assigner based on pymatgen
data_DB7-ddmof_3229
_audit_creation_date              2022-05-24
_audit_creation_method            REPEAT_Assigner
_cell_length_a                    27.652230
_cell_length_b                    28.787410
_cell_length_c                    44.390800
_cell_angle_alpha                 60.705480
_cell_angle_beta                  118.988730
_cell_angle_gamma                 133.409690
_cell_volume                      21765.066815
_symmetry_space_group_name_H-M    P1
_symmetry_Int_Tables_number       1
loop_
    _symmetry_equiv_pos_site_id
    _symmetry_equiv_pos_as_xyz
    1  x,y,z
loop_
    _atom_site_type_symbol
    _atom_site_label
    _atom_site_fract_x
    _atom_site_fract_y
    _atom_site_fract_z
    _atom_type_partial_charge
    C   C1    0.022080  0.995260  0.209530  0.979666
    C   C2    0.023990  0.988730  0.712110  1.004734
    C   C3    0.026220  0.964790  0.814980  0.321448
    C   C4    0.018520  0.964380  0.845320  -0.130454
    C   C5    0.026560  0.992550  0.462760  -0.114999
    C   C6    0.027790  0.982500  0.342930  -0.129158
    C   C7    0.032850  0.980970  0.312310  0.312828
    C   C8    0.034260  0.984520  0.248020  -0.009368
    C   C9    0.046090  0.988230  0.501000  1.127406
    C   C10   0.032800  0.973540  0.750710  0.000707
    C   C11   0.048720  0.017830  0.945970  -0.046359
    C   C12   0.024360  0.984940  0.368340  -0.186984
    C   C13   0.012370  0.964330  0.870660  -0.194925
    C   C14   0.068360  0.048350  0.409170  -0.260097
    C   C15   0.052240  0.020220  0.914640  -0.283551
    C   C16   0.070990  0.050240  0.440990  -0.104337
    C   C17   0.021080  0.988860  0.398720  0.396346
    C   C18   0.053000  0.155380  0.114480  1.167104
    C   C19   0.006810  0.950090  0.001850  0.958011
    C   C20   0.004950  0.963960  0.901100  0.402720
    C   C21   0.075330  0.159940  0.624600  1.161740
    C   C22   0.083640  0.019640  0.800680  -0.251811
    C   C23   0.087060  0.036400  0.295740  -0.250610
    C   C24   0.087050  0.023930  0.768800  -0.133791
    C   C25   0.702510  0.299180  0.016240  0.984012
    C   C26   0.624120  0.287780  0.031830  1.098805
    C   C27   0.720260  0.393400  0.013810  1.010277
    C   C28   0.704430  0.305420  0.501830  1.030068
    C   C29   0.739830  0.406610  0.502000  1.158788
    C   C30   0.625820  0.313470  0.502480  1.003025
    C   C31   0.257940  0.631070  0.176840  0.943261
    C   C32   0.355640  0.653110  0.174690  1.236024
    C   C33   0.246550  0.559430  0.158220  1.163887
    C   C34   0.282550  0.631740  0.695980  0.941098
    C   C35   0.381650  0.654940  0.694810  1.136407
    C   C36   0.274520  0.555900  0.683140  1.033264
    C   C37   0.176240  0.060850  0.063500  1.205980
    C   C38   0.960180  0.781760  0.093330  1.183603
    C   C39   0.862620  0.046650  0.071080  0.911697
    C   C40   0.831360  0.886950  0.165640  1.018674
    C   C41   0.131630  0.892650  0.150280  1.110048
    C   C42   0.200990  0.050520  0.579720  1.010680
    C   C43   0.949210  0.791410  0.575540  1.061054
    C   C44   0.887930  0.064170  0.570460  0.979926
    C   C45   0.837410  0.892280  0.659880  1.092839
    C   C46   0.108830  0.857460  0.649360  1.291254
    C   C47   0.974520  0.912060  0.798510  -0.263913
    C   C48   0.978000  0.916250  0.766610  -0.107585
    C   C49   0.951990  0.906480  0.918030  -0.259507
    C   C50   0.948470  0.904030  0.949330  -0.085953
    C   C51   0.998130  0.959010  0.964150  -0.158949
    C   C52   0.973310  0.932370  0.419030  -0.247913
    C   C53   0.975880  0.934260  0.450840  -0.183340
    C   C54   0.981830  0.925480  0.298000  -0.256209
    C   C55   0.982770  0.927090  0.266100  -0.087508
    C   C56   0.087890  0.038130  0.263830  -0.146090
    C   C57   0.171010  0.383690  0.675390  -0.327682
    C   C58   0.195110  0.396760  0.648620  0.020601
    C   C59   0.234490  0.462070  0.629200  0.280954
    C   C60   0.251660  0.513590  0.637410  -0.258805
    C   C61   0.234030  0.501320  0.666650  -0.203643
    C   C62   0.191250  0.435850  0.684740  0.363658
    C   C63   0.178850  0.342020  0.640860  0.077385
    C   C64   0.192180  0.296890  0.668280  0.306691
    C   C65   0.167370  0.240070  0.661660  -0.340224
    C   C66   0.129800  0.228340  0.627640  -0.285899
    C   C67   0.126580  0.278630  0.599330  0.469765
    C   C68   0.148320  0.333850  0.606070  -0.413341
    C   C69   0.568240  0.740830  0.708980  -0.338571
    C   C70   0.573430  0.765630  0.673650  0.024944
    C   C71   0.518060  0.762710  0.645770  0.291570
    C   C72   0.457480  0.733410  0.653200  -0.191223
    C   C73   0.450550  0.704460  0.688390  -0.372486
    C   C74   0.506880  0.710050  0.716340  0.423326
    C   C75   0.637340  0.795980  0.665900  0.062995
    C   C76   0.675980  0.863030  0.648620  0.267395
    C   C77   0.738490  0.892710  0.643290  -0.176600
    C   C78   0.764280  0.856440  0.656110  -0.344750
    C   C79   0.724140  0.788560  0.671800  0.391004
    C   C80   0.660710  0.758390  0.676580  -0.334820
    C   C81   0.173710  0.683350  0.675970  -0.287012
    C   C82   0.205310  0.711700  0.704350  -0.069871
    C   C83   0.257020  0.706860  0.731920  0.412003
    C   C84   0.279390  0.677130  0.730110  -0.297255
    C   C85   0.250230  0.651760  0.700820  -0.222810
    C   C86   0.196000  0.653520  0.674160  0.362467
    C   C87   0.188010  0.751100  0.703480  0.031764
    C   C88   0.233760  0.820340  0.695530  0.323322
    C   C89   0.210520  0.858000  0.684630  -0.322051
    C   C90   0.141010  0.826810  0.680100  -0.276879
    C   C91   0.098970  0.758300  0.694180  0.367892
    C   C92   0.121990  0.720400  0.705150  -0.302650
    C   C93   0.111700  0.326980  0.086340  -0.427793
    C   C94   0.152470  0.344450  0.118920  0.146361
    C   C95   0.176540  0.307280  0.146030  0.273097
    C   C96   0.152430  0.248460  0.142200  -0.307751
    C   C97   0.104140  0.226480  0.111410  -0.299634
    C   C98   0.089290  0.269160  0.082280  0.447066
    C   C99   0.165980  0.398670  0.125430  -0.019637
    C   C100  0.199300  0.462770  0.103630  0.325863
    C   C101  0.216840  0.514670  0.111660  -0.250426
    C   C102  0.204180  0.503720  0.142400  -0.305661
    C   C103  0.165690  0.438860  0.162440  0.402428
    C   C104  0.146250  0.386450  0.153810  -0.329867
    C   C105  0.646930  0.753430  0.172280  -0.320803
    C   C106  0.626570  0.791550  0.165520  0.080436
    C   C107  0.671810  0.860520  0.156150  0.214646
    C   C108  0.737200  0.891190  0.154190  -0.043776
    C   C109  0.758720  0.853440  0.162010  -0.367443
    C   C110  0.712910  0.784250  0.170570  0.365133
    C   C111  0.558010  0.759390  0.168330  0.010089
    C   C112  0.509720  0.765110  0.137910  0.332756
    C   C113  0.445330  0.735900  0.140740  -0.245011
    C   C114  0.427960  0.699460  0.173780  -0.345460
    C   C115  0.477120  0.695930  0.204410  0.399579
    C   C116  0.541990  0.725900  0.201680  -0.336448
    C   C117  0.231990  0.700350  0.216680  -0.297395
    C   C118  0.186110  0.712940  0.188140  -0.007626
    C   C119  0.157660  0.691120  0.157520  0.350941
    C   C120  0.177750  0.660180  0.154850  -0.307766
    C   C121  0.226970  0.651460  0.182490  -0.179159
    C   C122  0.252450  0.669870  0.213890  0.338590
    C   C123  0.175110  0.756410  0.188380  0.029659
    C   C124  0.109270  0.733100  0.185920  0.261654
    C   C125  0.096640  0.777650  0.178520  -0.128851
    C   C126  0.149300  0.845730  0.172810  -0.311101
    C   C127  0.216660  0.867700  0.179850  0.334693
    C   C128  0.229370  0.823270  0.187330  -0.353409
    C   C129  0.858600  0.194810  0.518700  -0.417974
    C   C130  0.789960  0.158090  0.518900  0.093890
    C   C131  0.750230  0.088840  0.528700  0.310865
    C   C132  0.781140  0.057170  0.542390  -0.231750
    C   C133  0.851620  0.094370  0.545790  -0.366035
    C   C134  0.889170  0.163010  0.531740  0.459029
    C   C135  0.762710  0.192080  0.513440  -0.036145
    C   C136  0.744420  0.182780  0.541510  0.368189
    C   C137  0.723320  0.218450  0.537180  -0.303361
    C   C138  0.721690  0.264690  0.505150  -0.252453
    C   C139  0.739570  0.273860  0.477000  0.397419
    C   C140  0.759610  0.237360  0.481080  -0.321815
    C   C141  0.837190  0.578880  0.505020  -0.340358
    C   C142  0.852990  0.569850  0.541790  0.010470
    C   C143  0.845550  0.511380  0.565090  0.318333
    C   C144  0.818160  0.460850  0.551540  -0.195706
    C   C145  0.794600  0.466830  0.514750  -0.328279
    C   C146  0.807710  0.527400  0.491520  0.384632
    C   C147  0.873100  0.619770  0.555580  0.072030
    C   C148  0.937230  0.652140  0.578760  0.334667
    C   C149  0.958380  0.703370  0.589160  -0.266084
    C   C150  0.917150  0.724730  0.575300  -0.358312
    C   C151  0.851290  0.689690  0.554000  0.437431
    C   C152  0.829150  0.637040  0.544390  -0.371390
    C   C153  0.332290  0.186930  0.525590  -0.334891
    C   C154  0.387000  0.182550  0.547520  0.033229
    C   C155  0.384090  0.142640  0.582330  0.363049
    C   C156  0.325180  0.104300  0.594280  -0.392740
    C   C157  0.268320  0.104710  0.571430  -0.121953
    C   C158  0.273110  0.148230  0.537510  0.309394
    C   C159  0.446880  0.218900  0.533960  0.035952
    C   C160  0.441590  0.198950  0.508600  0.357379
    C   C161  0.500030  0.230010  0.498170  -0.317644
    C   C162  0.564020  0.280930  0.513100  -0.241662
    C   C163  0.569030  0.300710  0.538510  0.423468
    C   C164  0.510570  0.270380  0.548440  -0.363955
    C   C165  0.740610  0.088360  0.038590  -0.319867
    C   C166  0.780210  0.155070  0.020960  0.065448
    C   C167  0.839780  0.181230  0.013430  0.295521
    C   C168  0.863170  0.142880  0.026710  -0.196196
    C   C169  0.827440  0.078380  0.047740  -0.275895
    C   C170  0.763680  0.049920  0.051590  0.339475
    C   C171  0.764540  0.199120  0.015060  -0.095428
    C   C172  0.700870  0.187130  0.994140  0.460911
    C   C173  0.681640  0.221640  0.993550  -0.349023
    C   C174  0.726160  0.268990  0.013430  -0.260435
    C   C175  0.791250  0.283470  0.032820  0.439837
    C   C176  0.810180  0.248500  0.033720  -0.310297
    C   C177  0.871930  0.615720  0.083490  -0.268321
    C   C178  0.857070  0.628740  0.046360  -0.010438
    C   C179  0.865850  0.688560  0.025030  0.354855
    C   C180  0.891430  0.735530  0.040790  -0.354120
    C   C181  0.912140  0.724960  0.077870  -0.324978
    C   C182  0.900290  0.664020  0.099200  0.374844
    C   C183  0.830090  0.578710  0.029940  0.091904
    C   C184  0.864900  0.551570  0.040960  0.287146
    C   C185  0.831960  0.494360  0.031570  -0.287996
    C   C186  0.764540  0.464530  0.010860  -0.259084
    C   C187  0.734430  0.497740  0.995370  0.386860
    C   C188  0.766200  0.553500  0.005660  -0.381956
    C   C189  0.361100  0.134010  0.096400  -0.354879
    C   C190  0.381720  0.174060  0.064250  0.050621
    C   C191  0.339290  0.190170  0.034720  0.339839
    C   C192  0.273360  0.159590  0.036070  -0.347233
    C   C193  0.249640  0.113020  0.066880  -0.206570
    C   C194  0.295620  0.104580  0.097890  0.350643
    C   C195  0.444490  0.194220  0.060600  0.007108
    C   C196  0.508810  0.237780  0.079650  0.334289
    C   C197  0.568260  0.263130  0.072760  -0.227559
    C   C198  0.563940  0.246440  0.046190  -0.304018
    C   C199  0.499720  0.198820  0.029180  0.385437
    C   C200  0.440220  0.172530  0.036540  -0.302899
    Co  Co1   0.000420  0.881210  0.122370  1.302213
    Co  Co2   0.004870  0.053100  0.591850  1.339535
    Co  Co3   0.034910  0.998490  0.061690  1.339160
    Co  Co4   0.058700  0.010670  0.565110  1.273082
    Co  Co5   0.005000  0.883450  0.618450  1.323828
    Co  Co6   0.084460  0.915720  0.072690  1.324260
    Co  Co7   0.088470  0.914590  0.571020  1.374244
    Co  Co8   0.980450  0.040300  0.088010  1.305333
    Co  Co9   0.949830  0.925480  0.150000  1.267609
    Co  Co10  0.935580  0.031430  0.147020  1.338802
    Co  Co11  0.960160  0.930090  0.648970  1.297318
    Co  Co12  0.947930  0.036040  0.648070  1.334244
    F   F1    0.032760  0.727550  0.692390  -0.214645
    F   F2    0.046400  0.250650  0.051370  -0.215462
    F   F3    0.056940  0.667940  0.188860  -0.174070
    F   F4    0.259100  0.476020  0.603600  -0.183623
    F   F5    0.172490  0.422890  0.712600  -0.220912
    F   F6    0.226910  0.306810  0.701520  -0.193023
    F   F7    0.095870  0.270670  0.565700  -0.216810
    F   F8    0.522130  0.786040  0.611470  -0.200379
    F   F9    0.501000  0.682630  0.750520  -0.230490
    F   F10   0.654370  0.900110  0.638430  -0.188524
    F   F11   0.748190  0.752710  0.684210  -0.201099
    F   F12   0.286770  0.732410  0.759990  -0.217567
    F   F13   0.167310  0.629510  0.645610  -0.195775
    F   F14   0.298860  0.851050  0.695320  -0.184390
    F   F15   0.220460  0.326370  0.176710  -0.189243
    F   F16   0.217950  0.475400  0.075810  -0.188818
    F   F17   0.151410  0.427140  0.191700  -0.213978
    F   F18   0.652900  0.897890  0.149800  -0.191208
    F   F19   0.733020  0.746980  0.178570  -0.192992
    F   F20   0.524690  0.797610  0.105510  -0.204548
    F   F21   0.460950  0.660880  0.236550  -0.212398
    F   F22   0.113310  0.702990  0.129640  -0.184247
    F   F23   0.298350  0.659730  0.241350  -0.199871
    F   F24   0.268960  0.932930  0.176590  -0.178080
    F   F25   0.682600  0.052470  0.526800  -0.198578
    F   F26   0.956550  0.199380  0.533230  -0.177527
    F   F27   0.749240  0.140770  0.573340  -0.215956
    F   F28   0.737850  0.318310  0.445810  -0.223736
    F   F29   0.860600  0.501800  0.600710  -0.210793
    F   F30   0.787100  0.534580  0.455840  -0.221625
    F   F31   0.980470  0.636270  0.589720  -0.220426
    F   F32   0.810430  0.709150  0.540870  -0.226921
    F   F33   0.437280  0.138950  0.604020  -0.209823
    F   F34   0.218720  0.149610  0.515260  -0.169806
    F   F35   0.380170  0.148640  0.494670  -0.208156
    F   F36   0.630930  0.347800  0.554460  -0.218610
    F   F37   0.876780  0.244740  0.994810  -0.190902
    F   F38   0.725590  0.985850  0.069320  -0.148827
    F   F39   0.657020  0.140880  0.975140  -0.240568
    F   F40   0.834810  0.329070  0.052230  -0.234254
    F   F41   0.851920  0.702120  0.989130  -0.204261
    F   F42   0.919150  0.652770  0.135150  -0.196823
    F   F43   0.929120  0.578660  0.062180  -0.192025
    F   F44   0.671380  0.472260  0.972950  -0.195122
    F   F45   0.360550  0.232540  0.004140  -0.200227
    F   F46   0.274830  0.063360  0.128650  -0.162930
    F   F47   0.513670  0.258030  0.103550  -0.215699
    F   F48   0.494710  0.181220  0.003910  -0.219240
    H   H1    0.044810  0.759800  0.174270  0.160736
    H   H2    0.008860  0.729420  0.606100  0.233099
    H   H3    0.087040  0.667070  0.712620  0.207377
    H   H4    0.129860  0.068270  0.757020  0.124545
    H   H5    0.124460  0.060140  0.813490  0.170404
    H   H6    0.930430  0.868930  0.809610  0.151179
    H   H7    0.935750  0.876990  0.753050  0.146604
    H   H8    0.914610  0.863040  0.907570  0.179547
    H   H9    0.908880  0.858470  0.962870  0.102362
    H   H10   0.087590  0.060500  0.957120  0.115084
    H   H11   0.092910  0.065170  0.901550  0.156912
    H   H12   0.110500  0.095500  0.449830  0.131011
    H   H13   0.104840  0.092570  0.393430  0.154572
    H   H14   0.935870  0.886370  0.410960  0.175033
    H   H15   0.941420  0.889300  0.467350  0.150494
    H   H16   0.940220  0.881970  0.310840  0.144575
    H   H17   0.941000  0.885370  0.254290  0.141421
    H   H18   0.128130  0.082660  0.250350  0.131814
    H   H19   0.127350  0.079120  0.306840  0.168874
    H   H20   0.283650  0.563900  0.622850  0.178430
    H   H21   0.138360  0.333350  0.689640  0.208332
    H   H22   0.172240  0.202590  0.683580  0.238997
    H   H23   0.139120  0.368950  0.584470  0.225776
    H   H24   0.414100  0.729040  0.631470  0.190994
    H   H25   0.611260  0.744210  0.730680  0.202045
    H   H26   0.768950  0.945040  0.631110  0.187622
    H   H27   0.630600  0.706310  0.689420  0.198298
    H   H28   0.320690  0.675380  0.751030  0.206307
    H   H29   0.133480  0.686490  0.654670  0.193051
    H   H30   0.244420  0.911140  0.675370  0.213953
    H   H31   0.166190  0.217000  0.164440  0.238305
    H   H32   0.094530  0.356330  0.064810  0.224410
    H   H33   0.245340  0.564440  0.095610  0.171549
    H   H34   0.118080  0.336720  0.169950  0.195366
    H   H35   0.772140  0.944540  0.147750  0.134370
    H   H36   0.612000  0.700060  0.179290  0.195194
    H   H37   0.407500  0.738480  0.116940  0.188656
    H   H38   0.579500  0.722470  0.225380  0.198891
    H   H39   0.157540  0.645920  0.130590  0.199396
    H   H40   0.253620  0.716270  0.240540  0.215062
    H   H41   0.280760  0.841450  0.190330  0.213555
    H   H42   0.751170  0.003970  0.552180  0.213880
    H   H43   0.889240  0.248180  0.510270  0.218778
    H   H44   0.709960  0.211420  0.559070  0.212504
    H   H45   0.773700  0.244950  0.459320  0.212716
    H   H46   0.808930  0.414470  0.569670  0.184176
    H   H47   0.844840  0.624680  0.486880  0.203770
    H   H48   0.778840  0.611200  0.527230  0.219047
    H   H49   0.322270  0.071530  0.620680  0.250369
    H   H50   0.334860  0.218820  0.498970  0.205380
    H   H51   0.495590  0.214430  0.478590  0.203191
    H   H52   0.515020  0.285700  0.568160  0.213982
    H   H53   0.911260  0.164690  0.022570  0.199392
    H   H54   0.693680  0.067220  0.043760  0.202096
    H   H55   0.631660  0.210780  0.978150  0.242939
    H   H56   0.859320  0.258000  0.050000  0.193293
    H   H57   0.898530  0.781660  0.024160  0.263598
    H   H58   0.862960  0.568770  0.100150  0.178252
    H   H59   0.856750  0.470470  0.042670  0.232434
    H   H60   0.739600  0.575030  0.996210  0.219849
    H   H61   0.238820  0.167940  0.012280  0.217697
    H   H62   0.394470  0.123160  0.119710  0.209835
    H   H63   0.617740  0.298710  0.086630  0.173081
    H   H64   0.390670  0.137320  0.022510  0.187046
    N   N1    0.644120  0.260110  0.027400  -0.912215
    N   N2    0.661790  0.354180  0.024610  -0.903722
    N   N3    0.741070  0.365930  0.009850  -0.879209
    N   N4    0.754690  0.369920  0.502580  -0.941089
    N   N5    0.674400  0.379200  0.499320  -0.940026
    N   N6    0.640510  0.276640  0.503050  -0.868635
    N   N7    0.327030  0.669990  0.181310  -0.938884
    N   N8    0.315430  0.597540  0.163700  -1.044126
    N   N9    0.217430  0.576120  0.164720  -0.893166
    N   N10   0.351330  0.672990  0.698860  -0.892840
    N   N11   0.343530  0.595250  0.688730  -0.950602
    N   N12   0.243650  0.573810  0.687020  -0.844816
    O   O1    0.021080  0.046100  0.187440  -0.769612
    O   O2    0.015980  0.956210  0.197870  -0.706010
    O   O3    0.021330  0.000140  0.513280  -0.642730
    O   O4    0.013200  0.134140  0.623730  -0.876444
    O   O5    0.019980  0.952630  0.699160  -0.725141
    O   O6    0.032150  0.930340  0.085250  -0.838507
    O   O7    0.044200  0.936610  0.584400  -0.768179
    O   O8    0.026960  0.042170  0.691590  -0.794964
    O   O9    0.003710  0.986410  0.010420  -0.611326
    O   O10   0.016330  0.063560  0.048700  -0.640705
    O   O11   0.049400  0.081000  0.555240  -0.607484
    O   O12   0.025930  0.815610  0.096680  -0.861214
    O   O13   0.010490  0.901500  0.025720  -0.758450
    O   O14   0.062910  0.122620  0.108090  -0.704971
    O   O15   0.086040  0.128630  0.617460  -0.700444
    O   O16   0.088020  0.846120  0.618690  -0.971355
    O   O17   0.089880  0.884920  0.653530  -0.791105
    O   O18   0.992890  0.127560  0.117790  -0.908949
    O   O19   0.853520  0.012980  0.103670  -0.677955
    O   O20   0.954660  0.994950  0.126420  -0.770440
    O   O21   0.955370  0.853020  0.158920  -0.592499
    O   O22   0.966410  0.947220  0.097950  -0.884621
    O   O23   0.900270  0.050190  0.058400  -0.621926
    O   O24   0.877680  0.939060  0.178560  -0.894731
    O   O25   0.849260  0.869790  0.152360  -0.564057
    O   O26   0.153240  0.931910  0.120930  -0.716244
    O   O27   0.089980  0.891350  0.157960  -0.762116
    O   O28   0.146740  0.014760  0.048480  -0.914739
    O   O29   0.140320  0.059670  0.075600  -0.790672
    O   O30   0.937820  0.795770  0.105790  -0.676039
    O   O31   0.872860  0.026290  0.601710  -0.714700
    O   O32   0.969970  0.002290  0.627450  -0.774852
    O   O33   0.960820  0.855650  0.655380  -0.588921
    O   O34   0.984150  0.958580  0.597880  -0.871398
    O   O35   0.931490  0.072220  0.559880  -0.626928
    O   O36   0.095050  0.981080  0.521520  -0.891821
    O   O37   0.882030  0.941530  0.675030  -0.886653
    O   O38   0.857780  0.876700  0.647180  -0.637169
    O   O39   0.183350  0.989950  0.591690  -0.757512
    O   O40   0.165020  0.064040  0.581180  -0.720596
    O   O41   0.987960  0.841720  0.552900  -0.781697
    O   O42   0.938880  0.799890  0.598360  -0.598516
