# Generated by REPEAT Assigner based on pymatgen
data_DB7-ddmof_22838
_audit_creation_date              2022-05-24
_audit_creation_method            REPEAT_Assigner
_cell_length_a                    28.166770
_cell_length_b                    28.599810
_cell_length_c                    26.352840
_cell_angle_alpha                 89.923940
_cell_angle_beta                  89.923590
_cell_angle_gamma                 90.927310
_cell_volume                      21226.087822
_symmetry_space_group_name_H-M    P1
_symmetry_Int_Tables_number       1
loop_
    _symmetry_equiv_pos_site_id
    _symmetry_equiv_pos_as_xyz
    1  x,y,z
loop_
    _atom_site_type_symbol
    _atom_site_label
    _atom_site_fract_x
    _atom_site_fract_y
    _atom_site_fract_z
    _atom_type_partial_charge
    C   C1    0.534400  0.589230  0.981070  0.821785
    C   C2    0.422040  0.534930  0.048210  0.941542
    C   C3    0.583560  0.483970  0.032990  0.570959
    C   C4    0.452290  0.421900  0.948720  0.809260
    C   C5    0.402800  0.152600  0.085000  0.778120
    C   C6    0.381280  0.248310  0.978860  0.610280
    C   C7    0.273790  0.133310  0.036150  0.600293
    C   C8    0.377430  0.118180  0.893310  0.792582
    C   C9    0.553760  0.024720  0.301230  0.317690
    C   C10   0.580510  0.991630  0.274940  -0.327775
    C   C11   0.578640  0.989560  0.221850  0.162656
    C   C12   0.550930  0.021430  0.194980  -0.273368
    C   C13   0.523980  0.054460  0.221110  0.091475
    C   C14   0.525770  0.056360  0.274250  -0.301155
    C   C15   0.581490  0.053430  0.382850  0.435530
    C   C16   0.581170  0.052320  0.436300  -0.115537
    C   C17   0.550730  0.020520  0.461500  0.068040
    C   C18   0.520900  0.990570  0.433250  -0.087842
    C   C19   0.521910  0.993010  0.379900  0.387897
    C   C20   0.610840  0.082400  0.464810  -0.050211
    C   C21   0.610040  0.080740  0.517870  -0.064487
    C   C22   0.579600  0.048940  0.543310  -0.113391
    C   C23   0.550080  0.018710  0.515040  0.097525
    C   C24   0.519820  0.986740  0.540210  -0.135303
    C   C25   0.490640  0.958610  0.458670  -0.068778
    C   C26   0.490170  0.956650  0.511710  -0.043765
    C   C27   0.577960  0.047050  0.596700  0.455707
    C   C28   0.519510  0.985580  0.593630  0.461043
    C   C29   0.545160  0.015890  0.675270  0.305215
    C   C30   0.578220  0.990880  0.703920  -0.303760
    C   C31   0.575110  0.990340  0.757060  0.137623
    C   C32   0.538650  0.014520  0.781390  -0.269592
    C   C33   0.505400  0.039230  0.752850  0.165095
    C   C34   0.508850  0.040160  0.699820  -0.312466
    C   C35   0.666830  0.851420  0.097190  0.777856
    C   C36   0.652190  0.746620  0.998030  0.572074
    C   C37   0.781980  0.850120  0.027440  0.842477
    C   C38   0.676170  0.889870  0.907160  0.843821
    C   C39   0.130780  0.647150  0.116290  0.815269
    C   C40   0.248020  0.634940  0.046120  0.742520
    C   C41   0.128790  0.747610  0.015550  0.438853
    C   C42   0.138950  0.605860  0.925230  0.843941
    C   C43   0.994510  0.486000  0.320080  0.305499
    C   C44   0.967240  0.453610  0.292230  -0.307405
    C   C45   0.968300  0.454600  0.239060  0.170027
    C   C46   0.996300  0.488300  0.213820  -0.275444
    C   C47   0.023410  0.520810  0.241610  0.131059
    C   C48   0.022710  0.519450  0.294730  -0.315773
    C   C49   0.022400  0.455490  0.400430  0.455981
    C   C50   0.023650  0.456090  0.453820  -0.124376
    C   C51   0.994750  0.487430  0.480240  0.092985
    C   C52   0.964710  0.517270  0.453250  -0.135224
    C   C53   0.964160  0.515350  0.399890  0.459799
    C   C54   0.053540  0.426120  0.481070  -0.049522
    C   C55   0.054560  0.427500  0.534100  -0.063475
    C   C56   0.025720  0.458880  0.560760  -0.098728
    C   C57   0.995920  0.488950  0.533740  0.067611
    C   C58   0.967230  0.520480  0.560150  -0.100402
    C   C59   0.935970  0.548750  0.479890  -0.042902
    C   C60   0.937300  0.550400  0.532900  -0.064139
    C   C61   0.025900  0.460460  0.614130  0.434788
    C   C62   0.968700  0.521290  0.613520  0.438546
    C   C63   0.995680  0.490080  0.693900  0.280007
    C   C64   0.960130  0.463990  0.718860  -0.276004
    C   C65   0.958690  0.462700  0.771970  0.109002
    C   C66   0.993070  0.487310  0.800130  -0.243402
    C   C67   0.028910  0.513160  0.775270  0.137542
    C   C68   0.029980  0.514800  0.722110  -0.281850
    C   C69   0.836600  0.354020  0.900150  0.786828
    C   C70   0.836830  0.232950  0.961770  0.618815
    C   C71   0.739990  0.362980  0.002810  0.767882
    C   C72   0.869800  0.343460  0.093050  0.829093
    C   C73   0.052870  0.923050  0.010910  0.905542
    C   C74   0.091060  0.045350  0.061570  0.878218
    C   C75   0.949930  0.953690  0.085070  0.570699
    C   C76   0.963170  0.082850  0.980190  0.724204
    C   C77   0.867590  0.192530  0.956490  0.320487
    C   C78   0.915820  0.199200  0.945630  -0.147289
    C   C79   0.946480  0.161400  0.946870  -0.119911
    C   C80   0.929340  0.116570  0.959620  -0.148266
    C   C81   0.879640  0.108740  0.964850  0.035604
    C   C82   0.849190  0.147350  0.964280  -0.365336
    C   C83   0.859370  0.059810  0.972940  0.641152
    C   C84   0.861320  0.380120  0.859810  -0.082825
    C   C85   0.896060  0.358200  0.830030  0.031523
    C   C86   0.926460  0.385200  0.799370  -0.178791
    C   C87   0.922450  0.433970  0.798240  0.219062
    C   C88   0.885980  0.455450  0.825450  -0.217203
    C   C89   0.855370  0.428570  0.855920  -0.114828
    C   C90   0.890840  0.365400  0.138300  -0.258748
    C   C91   0.867580  0.402180  0.163240  0.265505
    C   C92   0.892220  0.429480  0.198920  -0.313379
    C   C93   0.939980  0.420600  0.209580  0.238988
    C   C94   0.962120  0.382320  0.187070  -0.253583
    C   C95   0.937660  0.354830  0.151620  -0.020885
    C   C96   0.102440  0.787810  0.996720  0.416664
    C   C97   0.055600  0.794420  0.012700  -0.360361
    C   C98   0.035300  0.838510  0.008750  0.047596
    C   C99   0.062300  0.876510  0.990280  -0.263051
    C   C100  0.106010  0.868010  0.965740  0.125567
    C   C101  0.126570  0.823690  0.970580  -0.378812
    C   C102  0.133110  0.907210  0.939340  0.616544
    C   C103  0.120790  0.585040  0.878160  -0.153387
    C   C104  0.090430  0.610660  0.846500  0.138158
    C   C105  0.062670  0.587380  0.810110  -0.226427
    C   C106  0.065040  0.538670  0.805180  0.178106
    C   C107  0.098200  0.513840  0.833770  -0.175982
    C   C108  0.126020  0.536970  0.870050  -0.125155
    C   C109  0.104800  0.619690  0.154810  -0.150316
    C   C110  0.056110  0.627150  0.163590  0.067606
    C   C111  0.029870  0.595420  0.193320  -0.189196
    C   C112  0.051990  0.556660  0.214960  0.248532
    C   C113  0.100960  0.550850  0.208770  -0.256502
    C   C114  0.127280  0.582280  0.178890  -0.054250
    C   C115  0.907890  0.926170  0.069630  0.342675
    C   C116  0.885230  0.896060  0.104130  -0.281291
    C   C117  0.844360  0.871210  0.089830  -0.021568
    C   C118  0.825970  0.875690  0.040590  0.039627
    C   C119  0.850060  0.904280  0.004560  -0.105950
    C   C120  0.890390  0.930240  0.019980  -0.304465
    C   C121  0.832240  0.908240  0.950360  0.631485
    C   C122  0.659400  0.913490  0.861190  -0.156679
    C   C123  0.630110  0.889450  0.826240  0.113983
    C   C124  0.605190  0.914510  0.789430  -0.212572
    C   C125  0.609090  0.963440  0.787470  0.193699
    C   C126  0.640900  0.986890  0.819880  -0.191785
    C   C127  0.665900  0.962030  0.856590  -0.122384
    C   C128  0.646140  0.884040  0.133890  -0.123794
    C   C129  0.673040  0.922250  0.152840  0.148862
    C   C130  0.651190  0.955800  0.183290  -0.256929
    C   C131  0.602640  0.951800  0.194530  0.249687
    C   C132  0.576280  0.913200  0.176800  -0.217022
    C   C133  0.597900  0.879520  0.146630  -0.145334
    C   C134  0.227110  0.110750  0.041990  0.172598
    C   C135  0.222240  0.069900  0.070900  -0.123202
    C   C136  0.177370  0.049860  0.079140  -0.177097
    C   C137  0.136720  0.071050  0.059510  0.039265
    C   C138  0.141150  0.114320  0.033400  -0.122848
    C   C139  0.186790  0.132580  0.022750  -0.235338
    C   C140  0.097630  0.141180  0.017330  0.708458
    C   C141  0.402480  0.103310  0.847290  -0.187732
    C   C142  0.441070  0.130120  0.828230  0.201959
    C   C143  0.472880  0.110070  0.793990  -0.285050
    C   C144  0.466580  0.063450  0.778770  0.235805
    C   C145  0.426170  0.038140  0.794540  -0.249710
    C   C146  0.394250  0.058000  0.828610  -0.065646
    C   C147  0.489880  0.083230  0.193040  0.358911
    C   C148  0.444240  0.065340  0.181760  -0.102924
    C   C149  0.414970  0.089380  0.148150  -0.099614
    C   C150  0.430750  0.131380  0.125790  -0.125488
    C   C151  0.475060  0.150580  0.139350  -0.083905
    C   C152  0.504620  0.126490  0.172720  -0.294599
    C   C153  0.402840  0.287340  0.949960  0.228221
    C   C154  0.373750  0.321680  0.928900  -0.249750
    C   C155  0.392810  0.365720  0.916940  -0.031937
    C   C156  0.440680  0.375860  0.927120  -0.200300
    C   C157  0.471650  0.338230  0.935970  0.033965
    C   C158  0.452230  0.294410  0.950030  -0.183831
    C   C159  0.524900  0.345830  0.935120  0.680802
    C   C160  0.290550  0.605900  0.052500  0.083681
    C   C161  0.329860  0.623320  0.079610  -0.120515
    C   C162  0.371670  0.597860  0.081940  -0.119227
    C   C163  0.374740  0.554480  0.057560  -0.008207
    C   C164  0.333540  0.534240  0.035120  -0.149182
    C   C165  0.292240  0.561110  0.030890  -0.133928
    C   C166  0.333790  0.484740  0.014560  0.678052
    C   C167  0.704950  0.399590  0.010460  0.080628
    C   C168  0.691900  0.413030  0.059520  -0.170734
    C   C169  0.654390  0.443810  0.066670  -0.235209
    C   C170  0.629780  0.461620  0.024760  0.276083
    C   C171  0.645980  0.451540  0.974920  -0.181327
    C   C172  0.682460  0.419100  0.968390  -0.136602
    C   C173  0.625370  0.475930  0.928990  0.595079
    C   C174  0.627470  0.704700  0.978830  0.202942
    C   C175  0.644760  0.660520  0.991010  -0.291899
    C   C176  0.616060  0.620840  0.984740  0.093253
    C   C177  0.569810  0.624770  0.965700  -0.183682
    C   C178  0.555040  0.668240  0.945910  -0.059347
    C   C179  0.583650  0.708450  0.954090  -0.128169
    C   C180  0.507030  0.672670  0.920740  0.687692
    Cl  Cl1   0.902190  0.296980  0.831320  -0.061049
    Cl  Cl2   0.808800  0.416590  0.147560  -0.169559
    Cl  Cl3   0.085070  0.671560  0.853880  -0.098191
    Cl  Cl4   0.027840  0.676610  0.138560  -0.092122
    Cl  Cl5   0.621860  0.828360  0.830290  -0.089327
    Cl  Cl6   0.733290  0.930130  0.136250  -0.102661
    Cl  Cl7   0.452060  0.187580  0.849870  -0.125441
    Cl  Cl8   0.423950  0.012080  0.208290  -0.062873
    F   F1    0.873230  0.043170  0.019830  -0.205347
    F   F2    0.810230  0.059010  0.971200  -0.230309
    F   F3    0.875550  0.030390  0.935330  -0.202900
    F   F4    0.159570  0.932090  0.974610  -0.228183
    F   F5    0.163410  0.889650  0.902880  -0.200758
    F   F6    0.102080  0.937140  0.915480  -0.204356
    F   F7    0.866090  0.928730  0.918930  -0.212633
    F   F8    0.821430  0.864420  0.930940  -0.200705
    F   F9    0.792040  0.935340  0.949420  -0.189562
    F   F10   0.109040  0.187320  0.006050  -0.233710
    F   F11   0.077880  0.120700  0.974640  -0.213085
    F   F12   0.064460  0.141210  0.056080  -0.229931
    F   F13   0.539610  0.365400  0.980500  -0.246214
    F   F14   0.548100  0.304010  0.928170  -0.243848
    F   F15   0.537510  0.375380  0.895580  -0.239114
    F   F16   0.288090  0.466620  0.010270  -0.223842
    F   F17   0.354760  0.484620  0.967110  -0.215155
    F   F18   0.358650  0.455820  0.046780  -0.219389
    F   F19   0.626070  0.523640  0.936520  -0.232897
    F   F20   0.651200  0.467060  0.885410  -0.208608
    F   F21   0.579230  0.460780  0.921100  -0.105311
    F   F22   0.472280  0.676360  0.957560  -0.224227
    F   F23   0.505830  0.711840  0.889860  -0.222390
    F   F24   0.497300  0.633870  0.890950  -0.220200
    H   H1    0.601430  0.966660  0.295880  0.130423
    H   H2    0.504210  0.081150  0.294660  0.122799
    H   H3    0.483220  0.059270  0.677630  0.125862
    H   H4    0.606080  0.971920  0.684890  0.132072
    H   H5    0.467480  0.935180  0.437510  0.131827
    H   H6    0.466610  0.931780  0.530470  0.132842
    H   H7    0.634540  0.107130  0.446040  0.135563
    H   H8    0.633120  0.104250  0.539040  0.136652
    H   H9    0.535880  0.013720  0.822440  0.132894
    H   H10   0.548900  0.019380  0.153940  0.127364
    H   H11   0.945420  0.427800  0.311910  0.134989
    H   H12   0.043660  0.544510  0.316360  0.130581
    H   H13   0.057480  0.534870  0.702710  0.132531
    H   H14   0.933860  0.444690  0.696940  0.124189
    H   H15   0.912650  0.572050  0.459700  0.128984
    H   H16   0.914910  0.574900  0.552640  0.135830
    H   H17   0.076030  0.401720  0.461330  0.133190
    H   H18   0.077790  0.404100  0.554300  0.136935
    H   H19   0.992150  0.486080  0.841260  0.121450
    H   H20   0.996900  0.489290  0.172670  0.127089
    H   H21   0.984240  0.167520  0.941590  0.145098
    H   H22   0.811530  0.142520  0.971390  0.176728
    H   H23   0.929930  0.234030  0.938220  0.128704
    H   H24   0.954090  0.368430  0.777660  0.121707
    H   H25   0.828510  0.445690  0.878400  0.142868
    H   H26   0.882320  0.493090  0.824240  0.135153
    H   H27   0.874900  0.458850  0.216620  0.131555
    H   H28   0.955790  0.326550  0.132820  0.110086
    H   H29   0.998920  0.375040  0.195470  0.127884
    H   H30   0.000670  0.844280  0.025370  0.079177
    H   H31   0.162380  0.818080  0.957030  0.176569
    H   H32   0.036190  0.766340  0.031560  0.236690
    H   H33   0.037730  0.606830  0.787380  0.121118
    H   H34   0.149630  0.517040  0.893890  0.127046
    H   H35   0.100770  0.476280  0.829580  0.117352
    H   H36   0.992200  0.600550  0.199040  0.119559
    H   H37   0.164760  0.576430  0.172710  0.122447
    H   H38   0.118340  0.521210  0.225860  0.141516
    H   H39   0.826460  0.848860  0.117320  0.091315
    H   H40   0.908480  0.953300  0.993350  0.243061
    H   H41   0.898740  0.892550  0.142400  0.162325
    H   H42   0.581040  0.896190  0.764060  0.113344
    H   H43   0.688610  0.980780  0.883050  0.141272
    H   H44   0.644530  0.024640  0.818220  0.115076
    H   H45   0.671630  0.985630  0.196970  0.131395
    H   H46   0.576940  0.850310  0.132310  0.149644
    H   H47   0.538780  0.909840  0.185520  0.138580
    H   H48   0.174270  0.017130  0.099740  0.133073
    H   H49   0.190960  0.164360  0.000620  0.167228
    H   H50   0.253320  0.053360  0.086570  0.155404
    H   H51   0.503760  0.129950  0.781270  0.122329
    H   H52   0.364550  0.037200  0.842720  0.117147
    H   H53   0.420800  0.002250  0.782440  0.132300
    H   H54   0.380330  0.074880  0.138550  0.141320
    H   H55   0.539570  0.140650  0.181430  0.152587
    H   H56   0.487400  0.183170  0.122530  0.141761
    H   H57   0.369170  0.393590  0.906310  0.118750
    H   H58   0.475120  0.267070  0.963770  0.134756
    H   H59   0.335830  0.315510  0.925610  0.183415
    H   H60   0.402590  0.613040  0.100450  0.127006
    H   H61   0.261840  0.547520  0.010130  0.170320
    H   H62   0.328470  0.657180  0.097880  0.123932
    H   H63   0.642920  0.451990  0.104850  0.164290
    H   H64   0.693150  0.408630  0.930610  0.156835
    H   H65   0.709490  0.398200  0.092180  0.213996
    H   H66   0.627780  0.587880  0.000100  0.107528
    H   H67   0.570780  0.742680  0.943740  0.140824
    H   H68   0.679230  0.657260  0.008750  0.119091
    N   N1    0.552230  0.023870  0.355760  -0.070721
    N   N2    0.547890  0.015920  0.620780  -0.123419
    N   N3    0.993290  0.485230  0.374570  -0.118757
    N   N4    0.997210  0.491010  0.639420  -0.103528
    O   O1    0.544630  0.462530  0.018340  -0.555808
    O   O2    0.512950  0.594180  0.024960  -0.754527
    O   O3    0.580760  0.522260  0.059990  -0.745169
    O   O4    0.437870  0.532320  0.001560  -0.595504
    O   O5    0.451020  0.527790  0.086390  -0.813579
    O   O6    0.445260  0.429970  0.996440  -0.624549
    O   O7    0.531600  0.548950  0.956830  -0.536252
    O   O8    0.478530  0.452670  0.925060  -0.615858
    O   O9    0.294360  0.134770  0.991360  -0.583199
    O   O10   0.390010  0.196440  0.088400  -0.703379
    O   O11   0.292080  0.156830  0.074240  -0.712539
    O   O12   0.401470  0.207290  0.979780  -0.563548
    O   O13   0.342180  0.255080  0.004750  -0.746279
    O   O14   0.354070  0.156950  0.894680  -0.664821
    O   O15   0.385440  0.125870  0.048800  -0.568824
    O   O16   0.388510  0.101110  0.937060  -0.659123
    O   O17   0.493630  0.965530  0.352970  -0.467094
    O   O18   0.610160  0.082820  0.358720  -0.493094
    O   O19   0.605090  0.075570  0.623690  -0.487281
    O   O20   0.491690  0.955360  0.617700  -0.484267
    O   O21   0.743470  0.873280  0.016220  -0.612855
    O   O22   0.705170  0.828250  0.108880  -0.724021
    O   O23   0.780150  0.804520  0.032480  -0.805680
    O   O24   0.664860  0.780340  0.966710  -0.560910
    O   O25   0.664910  0.748430  0.045850  -0.691824
    O   O26   0.708740  0.858280  0.905610  -0.638078
    O   O27   0.646850  0.845610  0.052600  -0.541298
    O   O28   0.653190  0.892740  0.949480  -0.677264
    O   O29   0.141140  0.714220  0.984370  -0.528940
    O   O30   0.172230  0.666200  0.127200  -0.741631
    O   O31   0.142940  0.746880  0.062910  -0.681828
    O   O32   0.206490  0.615160  0.036830  -0.658320
    O   O33   0.251730  0.680600  0.050130  -0.732740
    O   O34   0.179110  0.628740  0.926980  -0.664193
    O   O35   0.113350  0.650670  0.070290  -0.530488
    O   O36   0.112360  0.609170  0.964970  -0.686644
    O   O37   0.935750  0.542790  0.374100  -0.494787
    O   O38   0.049670  0.426580  0.375140  -0.495764
    O   O39   0.053330  0.432110  0.639980  -0.485687
    O   O40   0.942350  0.551050  0.638770  -0.484021
    O   O41   0.785400  0.373620  0.004380  -0.632632
    O   O42   0.790410  0.347260  0.897980  -0.715732
    O   O43   0.725820  0.321850  0.986250  -0.748936
    O   O44   0.836750  0.256740  0.004380  -0.666287
    O   O45   0.811160  0.246510  0.923180  -0.720629
    O   O46   0.829070  0.321540  0.094500  -0.646504
    O   O47   0.861210  0.336170  0.937510  -0.574652
    O   O48   0.886210  0.352490  0.048230  -0.660320
    O   O49   0.955210  0.996500  0.068500  -0.622490
    O   O50   0.077620  0.937850  0.050160  -0.753527
    O   O51   0.986340  0.932780  0.105240  -0.717070
    O   O52   0.070170  0.032740  0.019240  -0.595101
    O   O53   0.074410  0.030240  0.105360  -0.795347
    O   O54   0.982960  0.089680  0.023950  -0.570005
    O   O55   0.016670  0.947210  0.994120  -0.626521
    O   O56   0.967800  0.041320  0.961360  -0.599635
    Zn  Zn1   0.493540  0.496410  0.985050  1.037892
    Zn  Zn2   0.518580  0.544900  0.081540  1.245108
    Zn  Zn3   0.362400  0.150530  0.983960  1.120623
    Zn  Zn4   0.324120  0.216390  0.062590  1.238707
    Zn  Zn5   0.685320  0.842300  0.990530  1.088351
    Zn  Zn6   0.726790  0.772860  0.064970  1.225344
    Zn  Zn7   0.153580  0.650650  0.009420  1.113413
    Zn  Zn8   0.202070  0.717240  0.081370  1.224450
    Zn  Zn9   0.833620  0.324830  0.004690  1.139237
    Zn  Zn10  0.759160  0.289430  0.932200  1.244601
    Zn  Zn11  0.004820  0.010960  0.019070  1.082950
    Zn  Zn12  0.046210  0.967480  0.112640  1.239040
