# Generated by REPEAT Assigner based on pymatgen
data_DB7-ddmof_16645
_audit_creation_date              2022-05-24
_audit_creation_method            REPEAT_Assigner
_cell_length_a                    30.250460
_cell_length_b                    27.888500
_cell_length_c                    40.012210
_cell_angle_alpha                 103.735900
_cell_angle_beta                  115.817730
_cell_angle_gamma                 112.155860
_cell_volume                      24660.929955
_symmetry_space_group_name_H-M    P1
_symmetry_Int_Tables_number       1
loop_
    _symmetry_equiv_pos_site_id
    _symmetry_equiv_pos_as_xyz
    1  x,y,z
loop_
    _atom_site_type_symbol
    _atom_site_label
    _atom_site_fract_x
    _atom_site_fract_y
    _atom_site_fract_z
    _atom_type_partial_charge
    C   C1    0.520880  0.251010  0.873210  0.133692
    C   C2    0.526850  0.202860  0.862950  -0.021237
    C   C3    0.582520  0.211370  0.883900  0.094113
    C   C4    0.632760  0.268820  0.913720  -0.050824
    C   C5    0.627510  0.317370  0.922120  0.035792
    C   C6    0.571430  0.307730  0.903790  0.008591
    C   C7    0.465700  0.234330  0.865910  -0.290094
    C   C8    0.594830  0.171840  0.866380  -0.231918
    C   C9    0.672220  0.375990  0.937420  -0.172744
    C   C10   0.429590  0.173890  0.851580  -0.030945
    C   C11   0.654170  0.199220  0.881560  -0.009244
    C   C12   0.650340  0.411600  0.930630  -0.064691
    C   C13   0.742980  0.574940  0.934360  0.106586
    C   C14   0.750750  0.529460  0.920880  -0.185848
    C   C15   0.719690  0.475640  0.918770  -0.171391
    C   C16   0.681240  0.467200  0.930820  0.188949
    C   C17   0.672720  0.512400  0.943550  -0.139018
    C   C18   0.703120  0.565870  0.944990  -0.185752
    C   C19   0.308120  0.111390  0.882710  0.164658
    C   C20   0.292430  0.079310  0.842230  -0.177301
    C   C21   0.332300  0.099570  0.832120  -0.209717
    C   C22   0.388190  0.151690  0.862530  0.240486
    C   C23   0.404660  0.182270  0.903570  -0.175428
    C   C24   0.364620  0.162440  0.913470  -0.222443
    C   C25   0.751090  0.117890  0.894570  0.144022
    C   C26   0.696840  0.089000  0.888580  -0.228445
    C   C27   0.663560  0.113960  0.882350  -0.120325
    C   C28   0.683900  0.167700  0.881410  0.106155
    C   C29   0.736180  0.194300  0.884440  -0.171803
    C   C30   0.769990  0.169940  0.891540  -0.135802
    C   C31   0.595930  0.302430  0.401730  0.046665
    C   C32   0.616000  0.265240  0.408230  -0.032755
    C   C33   0.664150  0.273300  0.407500  0.109540
    C   C34   0.688250  0.314740  0.396220  0.017337
    C   C35   0.663030  0.345900  0.383580  0.120933
    C   C36   0.617220  0.340270  0.387110  -0.057165
    C   C37   0.568580  0.309450  0.422040  -0.161649
    C   C38   0.678520  0.230370  0.403030  -0.310138
    C   C39   0.694690  0.400000  0.385100  -0.290641
    C   C40   0.568820  0.278870  0.445270  -0.053906
    C   C41   0.712520  0.237780  0.387200  -0.009734
    C   C42   0.673840  0.436390  0.390200  -0.024250
    C   C43   0.785840  0.621990  0.440310  0.070063
    C   C44   0.803190  0.594540  0.463900  -0.142075
    C   C45   0.765630  0.534210  0.448340  -0.237712
    C   C46   0.710540  0.500890  0.408990  0.282447
    C   C47   0.692260  0.528830  0.386260  -0.223367
    C   C48   0.729890  0.589120  0.401740  -0.140430
    C   C49   0.446730  0.224320  0.477070  0.165698
    C   C50   0.428080  0.222680  0.437770  -0.220614
    C   C51   0.467790  0.240360  0.427270  -0.116580
    C   C52   0.526620  0.259950  0.456080  0.131565
    C   C53   0.545060  0.260930  0.495200  -0.122258
    C   C54   0.505260  0.243220  0.505670  -0.233983
    C   C55   0.827120  0.175880  0.415650  0.113758
    C   C56   0.765970  0.135450  0.388750  -0.168945
    C   C57   0.728550  0.155690  0.378490  -0.220543
    C   C58   0.751990  0.216510  0.395040  0.230250
    C   C59   0.813260  0.256850  0.420900  -0.152806
    C   C60   0.850590  0.236550  0.431030  -0.198531
    C   C61   0.425510  0.720930  0.983720  0.145099
    C   C62   0.424420  0.771680  0.996820  -0.005400
    C   C63   0.402820  0.779860  0.020910  0.082345
    C   C64   0.376280  0.733610  0.028050  -0.029103
    C   C65   0.371990  0.680280  0.011450  0.041819
    C   C66   0.401420  0.676280  0.992690  -0.049310
    C   C67   0.468310  0.729420  0.975550  -0.331654
    C   C68   0.382820  0.818370  0.023090  -0.233925
    C   C69   0.326550  0.624420  0.999840  -0.191607
    C   C70   0.499840  0.786740  0.982180  0.023493
    C   C71   0.340490  0.801720  0.031440  -0.034128
    C   C72   0.319690  0.577380  0.971170  -0.007689
    C   C73   0.228420  0.401810  0.951340  0.090805
    C   C74   0.197260  0.426990  0.935720  -0.152875
    C   C75   0.227070  0.483950  0.941510  -0.193471
    C   C76   0.288230  0.516050  0.962700  0.191636
    C   C77   0.319330  0.490470  0.977680  -0.152177
    C   C78   0.289530  0.433630  0.972160  -0.174113
    C   C79   0.657340  0.863500  0.988640  0.190152
    C   C80   0.607320  0.808820  0.953990  -0.210218
    C   C81   0.556280  0.783400  0.952300  -0.164126
    C   C82   0.554790  0.812480  0.985250  0.145730
    C   C83   0.605300  0.866830  0.020320  -0.100206
    C   C84   0.656360  0.892220  0.021960  -0.265340
    C   C85   0.214760  0.849090  0.990150  0.142132
    C   C86   0.274010  0.892530  0.023210  -0.225412
    C   C87   0.314770  0.876740  0.037340  -0.184230
    C   C88   0.296610  0.817430  0.018410  0.218853
    C   C89   0.237170  0.773940  0.985370  -0.141146
    C   C90   0.196430  0.789750  0.971420  -0.224736
    C   C91   0.517290  0.784300  0.533550  0.070412
    C   C92   0.519710  0.835490  0.552430  -0.042344
    C   C93   0.483860  0.833130  0.566230  0.166838
    C   C94   0.441980  0.778080  0.557620  -0.047937
    C   C95   0.433890  0.725800  0.533700  0.145253
    C   C96   0.472000  0.729160  0.521880  -0.074018
    C   C97   0.570500  0.796020  0.538890  -0.240592
    C   C98   0.469970  0.876180  0.573210  -0.287434
    C   C99   0.406970  0.672650  0.534700  -0.272012
    C   C100  0.614820  0.856430  0.562860  0.012311
    C   C101  0.417060  0.854240  0.569700  -0.034593
    C   C102  0.425950  0.636030  0.525330  -0.014560
    C   C103  0.323960  0.453970  0.489100  0.075169
    C   C104  0.298060  0.478080  0.466260  -0.154326
    C   C105  0.332030  0.536920  0.476660  -0.195006
    C   C106  0.392180  0.572100  0.510010  0.215487
    C   C107  0.418700  0.547050  0.531260  -0.191953
    C   C108  0.384650  0.488260  0.521010  -0.150506
    C   C109  0.753010  0.924010  0.547220  0.144943
    C   C110  0.749020  0.886550  0.565270  -0.172825
    C   C111  0.704900  0.865950  0.571540  -0.179496
    C   C112  0.664370  0.882570  0.559750  0.151190
    C   C113  0.669200  0.921100  0.542480  -0.088010
    C   C114  0.713420  0.941790  0.536340  -0.233258
    C   C115  0.304170  0.918380  0.536140  0.067391
    C   C116  0.348640  0.935780  0.529840  -0.131055
    C   C117  0.386250  0.915880  0.541320  -0.201326
    C   C118  0.380970  0.879810  0.560540  0.165852
    C   C119  0.338070  0.864690  0.568510  -0.118889
    C   C120  0.299110  0.882770  0.555550  -0.183671
    C   C121  0.151200  0.056340  0.932190  0.716483
    C   C122  0.110870  0.177410  0.943180  0.704944
    C   C123  0.866300  0.797310  0.942210  0.764774
    C   C124  0.846360  0.936880  0.970890  0.693575
    C   C125  0.023680  0.992330  0.080200  0.866496
    C   C126  0.917050  0.051320  0.958690  0.725712
    C   C127  0.987190  0.985730  0.812600  0.540823
    C   C128  0.047450  0.912670  0.924430  1.101493
    C   C129  0.263370  0.141500  0.500530  0.879014
    C   C130  0.192450  0.231930  0.478290  0.660094
    C   C131  0.934110  0.856170  0.475290  0.755356
    C   C132  0.916890  0.987600  0.503090  0.770769
    C   C133  0.084030  0.049960  0.612550  0.805596
    C   C134  0.987040  0.105420  0.487520  0.816177
    C   C135  0.065500  0.029040  0.347460  0.536884
    C   C136  0.127180  0.970620  0.466730  0.937821
    C   C137  0.055320  0.034270  0.705510  0.542556
    C   C138  0.088160  0.011060  0.663450  0.436970
    C   C139  0.078200  0.048020  0.647020  -0.350951
    C   C140  0.057030  0.078980  0.660920  0.230325
    C   C141  0.045120  0.071800  0.689910  -0.466012
    C   C142  0.003390  0.998890  0.784580  -0.126548
    C   C143  0.035230  0.057380  0.793360  0.005663
    C   C144  0.053470  0.069520  0.768170  -0.276252
    C   C145  0.038980  0.022810  0.733840  0.369921
    C   C146  0.990850  0.953470  0.750570  0.430225
    C   C147  0.057530  0.011240  0.235880  0.383889
    C   C148  0.071900  0.068580  0.298590  0.480784
    C   C149  0.061730  0.022120  0.308350  -0.227525
    C   C150  0.049180  0.969370  0.280870  0.144500
    C   C151  0.047160  0.963880  0.244610  -0.342442
    C   C152  0.039100  0.996120  0.121520  -0.432138
    C   C153  0.081130  0.050690  0.158640  0.255289
    C   C154  0.088780  0.055570  0.196510  -0.453337
    C   C155  0.054040  0.005720  0.197020  0.573476
    C   C156  0.007150  0.946620  0.123640  0.481541
    C   C157  0.221070  0.286810  0.477140  -0.034544
    C   C158  0.219200  0.335240  0.495300  0.003683
    C   C159  0.252200  0.389330  0.498410  -0.173255
    C   C160  0.286630  0.395510  0.483030  0.160299
    C   C161  0.286440  0.346390  0.463120  -0.084033
    C   C162  0.253910  0.292380  0.460410  -0.057396
    C   C163  0.795090  0.940220  0.536150  0.229779
    C   C164  0.852900  0.990180  0.565800  -0.105067
    C   C165  0.891860  0.005350  0.554420  -0.014625
    C   C166  0.873800  0.971010  0.513520  -0.091618
    C   C167  0.816100  0.919560  0.484220  0.100035
    C   C168  0.777100  0.905210  0.495590  -0.278527
    C   C169  0.259510  0.932680  0.518700  0.160280
    C   C170  0.251970  0.966690  0.545390  0.006641
    C   C171  0.207650  0.977380  0.527920  -0.141351
    C   C172  0.172360  0.956910  0.484110  -0.152668
    C   C173  0.182390  0.925800  0.457730  0.139719
    C   C174  0.224280  0.912120  0.474960  -0.165530
    C   C175  0.197620  0.343950  0.948610  0.189198
    C   C176  0.186300  0.292970  0.919680  -0.063729
    C   C177  0.157310  0.238590  0.917790  -0.095901
    C   C178  0.139140  0.234470  0.944410  -0.037209
    C   C179  0.149290  0.285240  0.972650  0.050262
    C   C180  0.178790  0.339670  0.974810  -0.217134
    C   C181  0.710890  0.890270  0.990080  0.197763
    C   C182  0.718040  0.925390  0.970430  -0.036813
    C   C183  0.764350  0.942920  0.966260  -0.246171
    C   C184  0.804450  0.926500  0.982130  0.103675
    C   C185  0.798490  0.893130  0.003340  0.076143
    C   C186  0.752140  0.875800  0.007510  -0.249323
    C   C187  0.172380  0.866040  0.973760  0.252953
    C   C188  0.146630  0.876250  0.994360  -0.061902
    C   C189  0.105950  0.891640  0.978040  -0.052551
    C   C190  0.090260  0.896450  0.941020  -0.265383
    C   C191  0.116570  0.886890  0.920690  0.129814
    C   C192  0.157260  0.871540  0.937060  -0.234474
    C   C193  0.866130  0.155430  0.432590  0.231427
    C   C194  0.896250  0.147190  0.415470  -0.062074
    C   C195  0.935190  0.130360  0.433390  -0.153769
    C   C196  0.944640  0.121880  0.468560  -0.041118
    C   C197  0.913510  0.129430  0.485230  0.163184
    C   C198  0.874680  0.146100  0.467150  -0.308776
    C   C199  0.828020  0.683690  0.454060  0.169646
    C   C200  0.821200  0.729140  0.469960  -0.021519
    C   C201  0.857980  0.786240  0.478670  -0.150873
    C   C202  0.901670  0.798470  0.471710  -0.054665
    C   C203  0.910180  0.753660  0.457610  0.069529
    C   C204  0.873430  0.696570  0.448910  -0.211001
    C   C205  0.315690  0.164890  0.500360  -0.073967
    C   C206  0.333690  0.127920  0.488990  0.036954
    C   C207  0.377860  0.148320  0.482690  -0.216056
    C   C208  0.404680  0.205630  0.488020  0.191119
    C   C209  0.388880  0.243640  0.501620  -0.089075
    C   C210  0.344520  0.223150  0.507680  -0.087511
    C   C211  0.791630  0.098520  0.910020  0.144351
    C   C212  0.808740  0.077430  0.885440  0.029720
    C   C213  0.850210  0.063000  0.901920  -0.262245
    C   C214  0.874000  0.068000  0.942540  0.041975
    C   C215  0.855140  0.087470  0.966620  0.102939
    C   C216  0.814780  0.103130  0.950350  -0.252736
    C   C217  0.775870  0.631720  0.936620  0.186919
    C   C218  0.820910  0.683230  0.976030  0.016998
    C   C219  0.850750  0.736940  0.977510  -0.258999
    C   C220  0.836610  0.739750  0.939950  -0.034831
    C   C221  0.793240  0.687660  0.900570  0.077739
    C   C222  0.762610  0.634190  0.899100  -0.222787
    C   C223  0.264940  0.092750  0.892620  0.084096
    C   C224  0.218580  0.101390  0.876190  0.071045
    C   C225  0.181170  0.088460  0.888910  -0.262976
    C   C226  0.190180  0.068030  0.918590  0.085149
    C   C227  0.236190  0.058970  0.934830  0.034207
    C   C228  0.273070  0.070920  0.921550  -0.208349
    Cl  Cl1   0.174410  0.328310  0.513260  -0.068027
    Cl  Cl2   0.326120  0.351730  0.440980  -0.048129
    Cl  Cl3   0.877310  0.033890  0.617480  -0.081171
    Cl  Cl4   0.792850  0.870100  0.434440  -0.059965
    Cl  Cl5   0.299490  0.998620  0.600880  -0.077951
    Cl  Cl6   0.148010  0.909370  0.404210  -0.103398
    Cl  Cl7   0.207420  0.296420  0.885220  -0.063784
    Cl  Cl8   0.123040  0.280870  0.004140  -0.065729
    Cl  Cl9   0.668190  0.946270  0.949730  -0.069370
    Cl  Cl10  0.845530  0.868460  0.021840  -0.058314
    Cl  Cl11  0.164440  0.869170  0.040330  -0.079154
    Cl  Cl12  0.101170  0.896700  0.875870  -0.073979
    Cl  Cl13  0.885630  0.157810  0.371590  -0.070655
    Cl  Cl14  0.921260  0.117060  0.528050  -0.130902
    Cl  Cl15  0.766730  0.715130  0.479030  -0.073066
    Cl  Cl16  0.965160  0.767850  0.449050  -0.083613
    Cl  Cl17  0.302390  0.056590  0.483620  -0.081026
    Cl  Cl18  0.424120  0.316930  0.510920  -0.069926
    Cl  Cl19  0.777370  0.067300  0.833470  -0.086728
    Cl  Cl20  0.879090  0.090170  0.016300  -0.072428
    Cl  Cl21  0.841320  0.680850  0.023820  -0.085466
    Cl  Cl22  0.779220  0.687950  0.853020  -0.086900
    Cl  Cl23  0.208500  0.130950  0.841130  -0.104765
    Cl  Cl24  0.247990  0.032460  0.971660  -0.071893
    H   H1    0.457280  0.266340  0.878160  0.153566
    H   H2    0.561270  0.126450  0.841640  0.144564
    H   H3    0.717190  0.390200  0.949410  0.124071
    H   H4    0.780830  0.535850  0.912020  0.124078
    H   H5    0.725250  0.440480  0.907530  0.136836
    H   H6    0.643010  0.506320  0.952740  0.122086
    H   H7    0.696220  0.600500  0.954810  0.117036
    H   H8    0.249070  0.039390  0.818450  0.130297
    H   H9    0.319540  0.075180  0.800590  0.142103
    H   H10   0.448380  0.221520  0.927720  0.129210
    H   H11   0.377270  0.187070  0.944930  0.136304
    H   H12   0.681800  0.048640  0.890700  0.134711
    H   H13   0.623370  0.092810  0.880090  0.135633
    H   H14   0.751710  0.235040  0.882840  0.135958
    H   H15   0.811840  0.192600  0.896160  0.107813
    H   H16   0.548930  0.335010  0.419480  0.132934
    H   H17   0.664560  0.195440  0.410810  0.179155
    H   H18   0.736650  0.415980  0.389710  0.153906
    H   H19   0.846220  0.619660  0.493780  0.119929
    H   H20   0.779800  0.513100  0.466380  0.147884
    H   H21   0.649650  0.503500  0.356010  0.129730
    H   H22   0.716170  0.610000  0.383320  0.118318
    H   H23   0.382820  0.207700  0.415390  0.129214
    H   H24   0.452710  0.238340  0.396650  0.118950
    H   H25   0.590260  0.275760  0.517580  0.129634
    H   H26   0.519920  0.244380  0.536020  0.123276
    H   H27   0.747500  0.088500  0.376870  0.116410
    H   H28   0.681380  0.124190  0.358370  0.136798
    H   H29   0.832000  0.303950  0.434300  0.110185
    H   H30   0.897770  0.268070  0.452070  0.135238
    H   H31   0.480960  0.698250  0.970840  0.181486
    H   H32   0.390750  0.849900  0.011560  0.152178
    H   H33   0.299900  0.618700  0.011700  0.135364
    H   H34   0.150090  0.402780  0.919710  0.116087
    H   H35   0.202740  0.503390  0.929910  0.124537
    H   H36   0.366640  0.515110  0.994470  0.111446
    H   H37   0.313990  0.414680  0.984610  0.125077
    H   H38   0.607910  0.786240  0.928250  0.125911
    H   H39   0.517600  0.741530  0.925100  0.130188
    H   H40   0.605130  0.889240  0.046350  0.119549
    H   H41   0.695040  0.934230  0.049010  0.137811
    H   H42   0.288520  0.938510  0.037670  0.152477
    H   H43   0.360560  0.910640  0.062660  0.120234
    H   H44   0.222760  0.728170  0.969860  0.127581
    H   H45   0.150780  0.756030  0.945680  0.119422
    H   H46   0.575740  0.762230  0.524680  0.163135
    H   H47   0.493980  0.918920  0.576060  0.165665
    H   H48   0.376950  0.662560  0.543700  0.151413
    H   H49   0.251300  0.451800  0.441390  0.118482
    H   H50   0.311320  0.555650  0.459610  0.130562
    H   H51   0.465190  0.573750  0.556810  0.127903
    H   H52   0.405050  0.469940  0.538750  0.133247
    H   H53   0.779350  0.872490  0.573640  0.115348
    H   H54   0.701610  0.836290  0.584900  0.126914
    H   H55   0.637730  0.933630  0.532660  0.097441
    H   H56   0.716060  0.970470  0.522170  0.127626
    H   H57   0.352810  0.963160  0.514780  0.106082
    H   H58   0.417990  0.926960  0.533950  0.147350
    H   H59   0.333990  0.837710  0.583840  0.120593
    H   H60   0.264450  0.868410  0.560050  0.120749
    H   H61   0.058440  0.016300  0.015120  0.396298
    H   H62   0.914290  0.958490  0.865580  0.330328
    H   H63   0.131490  0.075590  0.552580  0.433846
    H   H64   0.995830  0.015650  0.400210  0.317091
    H   H65   0.104520  0.986710  0.653190  0.038582
    H   H66   0.047760  0.106840  0.648100  0.061822
    H   H67   0.026460  0.093870  0.699250  0.153199
    H   H68   0.047000  0.093420  0.820190  0.136629
    H   H69   0.079120  0.114860  0.775460  0.128259
    H   H70   0.966750  0.907980  0.743470  0.017612
    H   H71   0.082310  0.110000  0.319540  0.027601
    H   H72   0.040870  0.932680  0.287500  0.061585
    H   H73   0.037900  0.923250  0.223570  0.160939
    H   H74   0.107010  0.089430  0.157990  0.067480
    H   H75   0.120920  0.097920  0.225130  0.155811
    H   H76   0.974560  0.903950  0.095360  0.060458
    H   H77   0.251470  0.426800  0.513120  0.127106
    H   H78   0.255160  0.255120  0.446100  0.138443
    H   H79   0.936310  0.044000  0.577450  0.176518
    H   H80   0.732870  0.866060  0.473000  0.129119
    H   H81   0.201190  0.002360  0.548550  0.118620
    H   H82   0.230690  0.886910  0.454420  0.106511
    H   H83   0.149400  0.199620  0.895880  0.118765
    H   H84   0.186780  0.378690  0.996730  0.127300
    H   H85   0.767920  0.967550  0.949290  0.175301
    H   H86   0.746780  0.848890  0.022780  0.116161
    H   H87   0.086110  0.899360  0.993930  0.081367
    H   H88   0.177520  0.864340  0.921420  0.105130
    H   H89   0.958690  0.124630  0.420310  0.143608
    H   H90   0.851250  0.152180  0.480210  0.148245
    H   H91   0.852020  0.820940  0.490260  0.148948
    H   H92   0.879160  0.661800  0.437050  0.130393
    H   H93   0.390740  0.119330  0.473060  0.121829
    H   H94   0.331220  0.252000  0.516840  0.137199
    H   H95   0.863910  0.047790  0.883050  0.174194
    H   H96   0.801220  0.118880  0.969160  0.130512
    H   H97   0.884670  0.776660  0.007920  0.223711
    H   H98   0.728780  0.594370  0.868760  0.129145
    H   H99   0.145840  0.095630  0.876460  0.212686
    H   H100  0.308740  0.064290  0.934310  0.121825
    N   N1    0.076460  0.004880  0.691980  -0.637488
    N   N2    0.008730  0.966250  0.726170  -0.613162
    N   N3    0.069510  0.062190  0.262920  -0.637676
    N   N4    0.014940  0.952440  0.160900  -0.725974
    O   O1    0.987680  0.942250  0.820050  -0.625790
    O   O2    0.974820  0.018970  0.831210  -0.644607
    O   O3    0.001390  0.879730  0.884780  -0.766917
    O   O4    0.956070  0.971420  0.882260  -0.991816
    O   O5    0.171530  0.091000  0.970880  -0.732640
    O   O6    0.094240  0.020670  0.903530  -0.657280
    O   O7    0.036700  0.064340  0.953820  -1.175585
    O   O8    0.058590  0.963280  0.948150  -0.779812
    O   O9    0.067230  0.129560  0.906080  -0.738227
    O   O10   0.134230  0.173980  0.978340  -0.610696
    O   O11   0.913770  0.009600  0.931780  -0.712157
    O   O12   0.923700  0.834210  0.970690  -0.683954
    O   O13   0.834440  0.812280  0.917580  -0.650870
    O   O14   0.825740  0.916360  0.930730  -0.666926
    O   O15   0.900150  0.952470  0.998940  -0.795716
    O   O16   0.935460  0.905440  0.925460  -1.250932
    O   O17   0.006950  0.943370  0.049630  -0.734603
    O   O18   0.026320  0.037690  0.074370  -0.706805
    O   O19   0.954680  0.073940  0.999500  -0.665046
    O   O20   0.015370  0.997150  0.996070  -1.172018
    O   O21   0.077700  0.996580  0.364330  -0.558417
    O   O22   0.061580  0.070790  0.367040  -0.649370
    O   O23   0.079290  0.934570  0.428030  -0.682367
    O   O24   0.036980  0.027140  0.418320  -0.929706
    O   O25   0.266100  0.170600  0.533190  -0.796241
    O   O26   0.211890  0.098950  0.465170  -0.681381
    O   O27   0.114800  0.121230  0.488930  -1.197614
    O   O28   0.137570  0.021790  0.488720  -0.749578
    O   O29   0.158510  0.180660  0.443250  -0.668714
    O   O30   0.207970  0.234390  0.515260  -0.591706
    O   O31   0.989650  0.067420  0.462640  -0.748070
    O   O32   0.990840  0.893060  0.506280  -0.659493
    O   O33   0.906400  0.868440  0.446020  -0.619738
    O   O34   0.898820  0.973070  0.463800  -0.670134
    O   O35   0.971400  0.005830  0.531570  -0.840294
    O   O36   0.011150  0.963810  0.461360  -1.236549
    O   O37   0.074040  0.002650  0.585050  -0.687859
    O   O38   0.093620  0.096780  0.607250  -0.724778
    O   O39   0.019180  0.125830  0.528580  -0.697584
    O   O40   0.088630  0.055960  0.531890  -1.207507
    S   S1    0.466310  0.143140  0.848030  -0.038852
    S   S2    0.689730  0.270110  0.916500  -0.010746
    S   S3    0.577380  0.369940  0.904810  -0.030181
    S   S4    0.601370  0.243690  0.439600  -0.033271
    S   S5    0.724400  0.296830  0.379760  -0.053228
    S   S6    0.619200  0.402600  0.394400  -0.019951
    S   S7    0.476770  0.825890  0.999570  -0.052405
    S   S8    0.327640  0.739740  0.034660  -0.033831
    S   S9    0.370060  0.604800  0.961880  -0.035013
    S   S10   0.587220  0.893280  0.576170  -0.045280
    S   S11   0.388630  0.782980  0.557000  -0.027860
    S   S12   0.473500  0.668520  0.514770  -0.018445
    Zn  Zn1   0.115220  0.098160  0.979780  1.194591
    Zn  Zn2   0.008760  0.050330  0.893620  1.349438
    Zn  Zn3   0.863650  0.886100  0.912120  1.169888
    Zn  Zn4   0.970970  0.917520  0.985990  1.388756
    Zn  Zn5   0.985940  0.984760  0.939410  1.440353
    Zn  Zn6   0.986910  0.032220  0.018750  1.298959
    Zn  Zn7   0.968510  0.916310  0.856820  1.232212
    Zn  Zn8   0.194720  0.164460  0.524390  1.193861
    Zn  Zn9   0.094430  0.103820  0.429600  1.322066
    Zn  Zn10  0.938490  0.945420  0.445250  1.156311
    Zn  Zn11  0.042480  0.976060  0.521730  1.371901
    Zn  Zn12  0.063170  0.042470  0.475370  1.460891
    Zn  Zn13  0.055640  0.088640  0.550930  1.298023
    Zn  Zn14  0.049040  0.969270  0.396480  1.142957
