# Generated by REPEAT Assigner based on pymatgen
data_DB7-ddmof_18405
_audit_creation_date              2022-05-24
_audit_creation_method            REPEAT_Assigner
_cell_length_a                    24.965950
_cell_length_b                    21.868860
_cell_length_c                    19.920900
_cell_angle_alpha                 92.704430
_cell_angle_beta                  85.318860
_cell_angle_gamma                 124.794250
_cell_volume                      8901.933500
_symmetry_space_group_name_H-M    P1
_symmetry_Int_Tables_number       1
loop_
    _symmetry_equiv_pos_site_id
    _symmetry_equiv_pos_as_xyz
    1  x,y,z
loop_
    _atom_site_type_symbol
    _atom_site_label
    _atom_site_fract_x
    _atom_site_fract_y
    _atom_site_fract_z
    _atom_type_partial_charge
    C   C1    0.908840  0.136790  0.930230  0.185466
    C   C2    0.920590  0.110210  0.869260  -0.234803
    C   C3    0.947670  0.069170  0.868890  -0.185576
    C   C4    0.965190  0.056330  0.929020  0.330333
    C   C5    0.956900  0.086670  0.989640  -0.219324
    C   C6    0.927840  0.125620  0.990330  -0.203999
    N   N1    0.993680  0.014450  0.927430  -0.508284
    C   C7    0.181710  0.118170  0.002570  0.215776
    C   C8    0.126570  0.059950  0.039080  -0.165508
    C   C9    0.064110  0.027930  0.016730  -0.267368
    C   C10   0.056500  0.052550  0.956300  0.353055
    C   C11   0.111480  0.113220  0.921940  -0.178215
    C   C12   0.173580  0.146570  0.945460  -0.282322
    C   C13   0.863350  0.780970  0.962270  0.247407
    C   C14   0.915060  0.808960  0.912650  -0.141931
    C   C15   0.957230  0.885650  0.901140  -0.268903
    C   C16   0.949000  0.935240  0.939990  0.391897
    C   C17   0.898100  0.907040  0.991230  -0.301474
    C   C18   0.855500  0.830290  0.002020  -0.183423
    H   H1    0.908540  0.121090  0.822280  0.183546
    H   H2    0.955480  0.047650  0.821790  0.121415
    H   H3    0.971980  0.078980  0.036150  0.130359
    H   H4    0.919740  0.146740  0.037560  0.147448
    H   H5    0.132210  0.038410  0.083870  0.114113
    H   H6    0.022030  0.983730  0.045890  0.144501
    H   H7    0.106120  0.133370  0.876060  0.130447
    H   H8    0.215730  0.192670  0.917810  0.147236
    H   H9    0.922360  0.771280  0.882780  0.110072
    H   H10   0.996610  0.906740  0.862200  0.155445
    H   H11   0.892350  0.944180  0.023610  0.166121
    H   H12   0.816560  0.809140  0.041500  0.132745
    C   C19   0.924380  0.088280  0.466950  0.316973
    C   C20   0.942620  0.064360  0.408510  -0.159799
    C   C21   0.978010  0.033350  0.412830  -0.241864
    C   C22   0.995600  0.026150  0.475480  0.251398
    C   C23   0.976890  0.049790  0.534220  -0.104152
    C   C24   0.941080  0.080230  0.529870  -0.379532
    N   N2    0.032080  0.993780  0.478830  -0.436368
    C   C25   0.219860  0.120390  0.558440  0.221451
    C   C26   0.181260  0.042640  0.563350  -0.124951
    C   C27   0.117570  0.000950  0.542550  -0.347357
    C   C28   0.091420  0.036590  0.515480  0.388400
    C   C29   0.130390  0.115240  0.512440  -0.310984
    C   C30   0.193310  0.156530  0.535320  -0.203639
    C   C31   0.904640  0.760770  0.514660  0.181931
    C   C32   0.942590  0.788180  0.453570  -0.234370
    C   C33   0.984070  0.864790  0.442100  -0.140080
    C   C34   0.989390  0.914830  0.492060  0.325128
    C   C35   0.953020  0.887450  0.554250  -0.226422
    C   C36   0.909320  0.810800  0.564560  -0.224109
    H   H13   0.930080  0.070690  0.359710  0.120772
    H   H14   0.992100  0.015130  0.367490  0.138372
    H   H15   0.991910  0.046790  0.582700  0.125511
    H   H16   0.927390  0.098930  0.575210  0.169924
    H   H17   0.202030  0.014110  0.579190  0.140719
    H   H18   0.090170  0.940900  0.544110  0.157427
    H   H19   0.113320  0.144320  0.489150  0.179024
    H   H20   0.223060  0.216660  0.530890  0.143953
    H   H21   0.939480  0.750020  0.414800  0.135304
    H   H22   0.012370  0.885460  0.394410  0.118323
    H   H23   0.958990  0.925290  0.594530  0.142147
    H   H24   0.879190  0.790370  0.611220  0.171384
    Co  Co1   0.710530  0.337800  0.995770  1.184280
    O   O1    0.787310  0.340300  0.941450  -0.739890
    Co  Co2   0.569330  0.318500  0.028400  1.153377
    O   O2    0.622920  0.280680  0.955180  -0.631708
    O   O3    0.638940  0.427740  0.033630  -0.591280
    O   O4    0.719530  0.246550  0.003590  -0.655241
    C   C37   0.698740  0.463870  0.003450  0.960722
    O   O5    0.566360  0.317190  0.921070  -0.588561
    C   C38   0.445910  0.238160  0.066000  0.797377
    C   C39   0.668430  0.340210  0.124750  0.633464
    O   O6    0.485810  0.309430  0.072140  -0.542398
    O   O7    0.477360  0.211140  0.040000  -0.649128
    O   O8    0.727520  0.371460  0.097790  -0.571629
    O   O9    0.625690  0.297640  0.080770  -0.535402
    O   O10   0.719660  0.428960  0.965720  -0.912834
    C   C40   0.770830  0.276620  0.962670  0.867293
    C   C41   0.607960  0.301020  0.904090  0.773905
    H   H25   0.751520  0.455690  0.925420  0.482370
    Co  Co3   0.740810  0.301660  0.504570  1.175371
    O   O11   0.817780  0.300020  0.456770  -0.747709
    Co  Co4   0.614240  0.311780  0.542360  1.223895
    O   O12   0.662250  0.280290  0.453150  -0.566871
    O   O13   0.695240  0.403850  0.571090  -0.594354
    O   O14   0.730070  0.197680  0.486590  -0.676909
    C   C42   0.748950  0.441730  0.531440  0.713834
    O   O15   0.628510  0.349860  0.442370  -0.601592
    C   C43   0.491290  0.245170  0.576290  0.595502
    C   C44   0.681510  0.270900  0.628940  0.876656
    O   O16   0.537820  0.309520  0.597320  -0.611094
    O   O17   0.514630  0.218120  0.534090  -0.652117
    O   O18   0.741410  0.294570  0.611710  -0.627291
    O   O19   0.647320  0.254650  0.577440  -0.631645
    O   O20   0.779340  0.411110  0.505770  -0.685717
    C   C45   0.788230  0.228790  0.458230  0.987883
    C   C46   0.659730  0.323880  0.412440  0.641542
    H   H26   0.824900  0.444360  0.483170  0.466413
    C   C47   0.647060  0.246180  0.818250  -0.204047
    C   C48   0.627680  0.294560  0.833420  -0.042208
    C   C49   0.626890  0.335540  0.780750  -0.127643
    C   C50   0.635800  0.318570  0.713860  0.088598
    C   C51   0.657970  0.273170  0.698730  -0.373839
    C   C52   0.661820  0.234520  0.751160  0.166306
    C   C53   0.682930  0.182170  0.736090  0.547284
    H   H27   0.650420  0.217430  0.858800  0.122536
    H   H28   0.628330  0.343520  0.673570  0.086476
    C   C54   0.618560  0.398690  0.794970  0.615931
    F   F1    0.667420  0.136270  0.790360  -0.195908
    F   F2    0.749820  0.223310  0.721810  -0.203572
    F   F3    0.651880  0.137080  0.681610  -0.191075
    F   F4    0.654520  0.441840  0.848100  -0.218970
    F   F5    0.553210  0.369850  0.809810  -0.201237
    F   F6    0.640330  0.445210  0.739710  -0.200475
    C   C55   0.700880  0.310310  0.226160  -0.033997
    C   C56   0.656160  0.318980  0.197120  -0.028396
    C   C57   0.606060  0.315880  0.238970  -0.093782
    C   C58   0.602890  0.305200  0.308680  0.022310
    C   C59   0.653870  0.308970  0.338530  0.003068
    C   C60   0.702860  0.309970  0.296460  -0.214526
    C   C61   0.753630  0.304430  0.325660  0.677747
    H   H29   0.735840  0.306540  0.193610  0.140978
    H   H30   0.561890  0.296850  0.340410  0.093101
    C   C62   0.552210  0.315630  0.209410  0.493261
    F   F7    0.799160  0.310190  0.276940  -0.239981
    F   F8    0.722290  0.235930  0.356390  -0.189461
    F   F9    0.786790  0.361230  0.371480  -0.217241
    F   F10   0.513160  0.248580  0.176950  -0.215124
    F   F11   0.578270  0.374060  0.164820  -0.190715
    F   F12   0.513680  0.323050  0.258490  -0.131170
    C   C63   0.858940  0.679580  0.525350  -0.117089
    C   C64   0.868300  0.643970  0.575760  0.399141
    C   C65   0.831500  0.565850  0.577580  -0.415088
    C   C66   0.784650  0.523280  0.530680  -0.008365
    C   C67   0.773600  0.558680  0.481920  0.147256
    C   C68   0.809940  0.636720  0.480370  -0.165768
    H   H31   0.840200  0.538390  0.614820  0.203868
    H   H32   0.801710  0.664000  0.442490  0.146278
    N   N3    0.917650  0.687420  0.622950  -0.626542
    N   N4    0.726050  0.515180  0.433120  -0.540915
    C   C69   0.888130  0.681830  0.691020  0.225681
    H   H33   0.850490  0.693910  0.691050  -0.001290
    H   H34   0.926660  0.723330  0.724030  0.026265
    H   H35   0.865610  0.625470  0.712410  -0.052857
    C   C70   0.757970  0.514630  0.368310  0.123253
    H   H36   0.790460  0.571730  0.346890  -0.010900
    H   H37   0.720140  0.479030  0.332260  0.006415
    H   H38   0.786720  0.491050  0.374060  -0.006595
    H   H39   0.949070  0.670150  0.622650  0.288071
    H   H40   0.697840  0.535840  0.427250  0.312573
    C   C71   0.890510  0.125020  0.461980  -0.046735
    C   C72   0.923170  0.201790  0.474750  0.304878
    C   C73   0.889630  0.235600  0.472340  -0.228553
    C   C74   0.823870  0.193440  0.456750  -0.312427
    C   C75   0.792090  0.117250  0.441060  0.412259
    C   C76   0.825470  0.083270  0.444390  -0.346966
    H   H41   0.914630  0.294470  0.483470  0.165180
    H   H42   0.800750  0.024420  0.433270  0.137091
    N   N5    0.990770  0.245430  0.490210  -0.565377
    N   N6    0.726110  0.074730  0.420500  -0.540945
    C   C77   0.033310  0.283770  0.430020  0.095746
    H   H43   0.025440  0.242950  0.389760  0.020941
    H   H44   0.085120  0.314870  0.442680  0.034792
    H   H45   0.024370  0.324070  0.411150  -0.016154
    C   C78   0.725710  0.069610  0.347030  0.086531
    H   H46   0.753590  0.126100  0.324240  0.015847
    H   H47   0.674540  0.039150  0.332370  0.039574
    H   H48   0.746870  0.038900  0.326780  -0.022625
    H   H49   0.999200  0.283860  0.528490  0.279018
    H   H50   0.699000  0.021460  0.441840  0.287235
    C   C79   0.290890  0.162320  0.565000  -0.225431
    C   C80   0.316110  0.172070  0.628350  0.588906
    C   C81   0.383250  0.204200  0.632140  -0.592763
    C   C82   0.424540  0.225130  0.573230  0.184211
    C   C83   0.400210  0.221160  0.510700  0.076508
    C   C84   0.333340  0.188990  0.506800  -0.189429
    H   H51   0.402810  0.211140  0.680680  0.236487
    H   H52   0.314240  0.183580  0.458290  0.154695
    N   N7    0.274080  0.153210  0.688910  -0.793122
    N   N8    0.443960  0.250770  0.451130  -0.316998
    C   C85   0.263670  0.088870  0.722670  0.227555
    H   H53   0.246440  0.041200  0.687410  -0.012268
    H   H54   0.225540  0.071110  0.764550  0.030764
    H   H55   0.309320  0.103300  0.744040  -0.034801
    C   C86   0.463740  0.326470  0.437980  0.150057
    H   H56   0.420890  0.326720  0.426980  -0.032646
    H   H57   0.499550  0.349390  0.393680  -0.021383
    H   H58   0.487830  0.363290  0.481750  0.007850
    H   H59   0.293890  0.198990  0.721550  0.337657
    H   H60   0.422180  0.216510  0.409460  0.205615
    C   C87   0.737150  0.545880  0.000070  -0.220886
    C   C88   0.796960  0.590640  0.031350  0.326899
    C   C89   0.837500  0.667260  0.018430  -0.253704
    C   C90   0.819280  0.700050  0.974980  -0.120582
    C   C91   0.758500  0.655600  0.945270  0.352121
    C   C92   0.717330  0.579270  0.959520  -0.265057
    H   H61   0.883430  0.701390  0.042240  0.142618
    H   H62   0.670850  0.545370  0.936730  0.187199
    N   N9    0.816870  0.558980  0.076850  -0.675259
    N   N10   0.738730  0.686940  0.899140  -0.686649
    C   C93   0.783050  0.546570  0.143580  0.226226
    H   H63   0.794470  0.600120  0.165580  0.044096
    H   H64   0.800030  0.522940  0.177490  -0.014862
    H   H65   0.729290  0.506760  0.141100  -0.091053
    C   C94   0.761650  0.684150  0.829810  0.195727
    H   H66   0.815870  0.718130  0.823930  -0.072082
    H   H67   0.744050  0.706650  0.795420  0.041865
    H   H68   0.741800  0.625690  0.814610  0.007705
    H   H69   0.811010  0.510430  0.057380  0.303165
    H   H70   0.753230  0.740900  0.912520  0.321210
    C   C95   0.809020  0.244890  0.947550  -0.182548
    C   C96   0.875730  0.284560  0.961810  0.350811
    C   C97   0.908600  0.249730  0.952330  -0.208056
    C   C98   0.875520  0.175190  0.931490  -0.134983
    C   C99   0.809460  0.135950  0.916690  0.442989
    C   C100  0.776580  0.171000  0.925070  -0.403274
    H   H71   0.959490  0.280000  0.963590  0.145267
    H   H72   0.725170  0.139940  0.915700  0.220591
    N   N11   0.910000  0.359120  0.988580  -0.745438
    N   N12   0.774540  0.058660  0.897620  -0.648171
    C   C101  0.896090  0.359200  0.061390  0.198403
    H   H73   0.844040  0.337900  0.073750  -0.028805
    H   H74   0.926990  0.417080  0.080620  0.008978
    H   H75   0.908000  0.324910  0.087440  0.031102
    C   C102  0.757820  0.048200  0.827320  0.172373
    H   H76   0.719030  0.057340  0.821210  -0.012469
    H   H77   0.739200  0.990250  0.811800  0.013205
    H   H78   0.801480  0.086590  0.793500  0.001671
    H   H79   0.901810  0.393480  0.963160  0.357697
    H   H80   0.732280  0.026730  0.929480  0.293177
    C   C103  0.376800  0.203290  0.052880  -0.313597
    C   C104  0.333710  0.208080  0.100160  0.464419
    C   C105  0.269740  0.179100  0.083520  -0.370019
    C   C106  0.248180  0.145260  0.020720  0.026723
    C   C107  0.290090  0.137550  0.975060  0.206482
    C   C108  0.354180  0.167030  0.991150  -0.202084
    H   H81   0.236970  0.183390  0.119410  0.169983
    H   H82   0.386710  0.162630  0.954960  0.184170
    N   N13   0.353320  0.239270  0.166290  -0.727727
    N   N14   0.267380  0.099880  0.911830  -0.469419
    C   C109  0.375400  0.317300  0.168840  0.270002
    H   H83   0.415990  0.351120  0.130340  -0.067426
    H   H84   0.393060  0.340580  0.219330  -0.013224
    H   H85   0.334190  0.321700  0.160810  0.000439
    C   C110  0.246400  0.022520  0.916080  0.090954
    H   H86   0.288070  0.019650  0.926240  -0.014172
    H   H87   0.227240  0.994140  0.867460  -0.004934
    H   H88   0.206470  0.992450  0.956210  0.033301
    H   H89   0.388340  0.232810  0.183360  0.323394
    H   H90   0.303890  0.127660  0.873000  0.251837
