# Generated by REPEAT Assigner based on pymatgen
data_DB7-ddmof_5416
_audit_creation_date              2022-05-24
_audit_creation_method            REPEAT_Assigner
_cell_length_a                    20.312750
_cell_length_b                    20.875550
_cell_length_c                    37.637840
_cell_angle_alpha                 60.745610
_cell_angle_beta                  118.976770
_cell_angle_gamma                 133.403020
_cell_volume                      9834.432537
_symmetry_space_group_name_H-M    P1
_symmetry_Int_Tables_number       1
loop_
    _symmetry_equiv_pos_site_id
    _symmetry_equiv_pos_as_xyz
    1  x,y,z
loop_
    _atom_site_type_symbol
    _atom_site_label
    _atom_site_fract_x
    _atom_site_fract_y
    _atom_site_fract_z
    _atom_type_partial_charge
    C   C1    0.769500  0.316660  0.001390  0.138815
    C   C2    0.813870  0.410520  0.992790  -0.267774
    C   C3    0.771290  0.439570  0.995210  0.072452
    C   C4    0.679110  0.376620  0.998640  -0.177791
    C   C5    0.641710  0.284430  0.014520  0.083100
    C   C6    0.685770  0.253710  0.014900  -0.258087
    H   H1    0.882590  0.460130  0.986410  0.127930
    H   H2    0.643180  0.400200  0.996450  0.115845
    H   H3    0.657280  0.182180  0.027010  0.108627
    C   C7    0.645510  0.290800  0.484080  0.128091
    C   C8    0.550700  0.238580  0.483050  -0.222086
    C   C9    0.512960  0.280990  0.476640  0.033660
    C   C10   0.565040  0.375560  0.463780  -0.197674
    C   C11   0.661220  0.427230  0.469820  0.113011
    C   C12   0.701090  0.385560  0.478020  -0.257056
    H   H4    0.508870  0.165020  0.490660  0.113972
    H   H5    0.534160  0.408480  0.456320  0.123132
    H   H6    0.775970  0.425380  0.483210  0.101105
    C   C13   0.354330  0.644140  0.206850  0.083987
    C   C14   0.293290  0.558000  0.197830  -0.242232
    C   C15   0.329850  0.518350  0.199420  0.121690
    C   C16   0.425990  0.563890  0.210430  -0.173180
    C   C17   0.485200  0.655330  0.210420  -0.010765
    C   C18   0.451340  0.692490  0.213360  -0.196605
    H   H7    0.218680  0.524260  0.187810  0.102566
    H   H8    0.453680  0.533620  0.211030  0.111681
    H   H9    0.499770  0.759940  0.218670  0.128528
    C   C19   0.227200  0.624900  0.678220  0.076817
    C   C20   0.324880  0.675320  0.686990  -0.213202
    C   C21   0.364090  0.645470  0.682550  0.078526
    C   C22   0.308790  0.556730  0.679240  -0.224956
    C   C23   0.212510  0.502830  0.673370  0.164660
    C   C24   0.170720  0.537390  0.671560  -0.268481
    H   H10   0.369820  0.740970  0.693790  0.103227
    H   H11   0.339760  0.531980  0.677690  0.134476
    H   H12   0.095440  0.497990  0.663760  0.109320
    Co  Co1   0.066970  0.103290  0.082800  1.310679
    Co  Co2   0.151370  0.038680  0.062070  1.207663
    Co  Co3   0.164440  0.887330  0.067260  1.240848
    C   C25   0.332550  0.058680  0.089200  0.901337
    O   O1    0.152630  0.144890  0.051250  -0.548039
    C   C26   0.140190  0.239790  0.121780  1.009191
    C   C27   0.800070  0.872880  0.145560  0.864670
    C   C28   0.163460  0.787650  0.155830  0.980159
    O   O2    0.134110  0.776380  0.118530  -0.772888
    O   O3    0.149610  0.834940  0.161580  -0.687983
    O   O4    0.053170  0.209380  0.109590  -0.786224
    O   O5    0.163230  0.196560  0.119500  -0.718491
    O   O6    0.849940  0.946100  0.158310  -0.757340
    O   O7    0.837860  0.856710  0.133580  -0.613425
    O   O8    0.114070  0.929260  0.081480  -0.690565
    O   O9    0.292100  0.970720  0.102000  -0.684930
    O   O10   0.293620  0.092980  0.086680  -0.666849
    Co  Co4   0.033160  0.038270  0.536430  1.139577
    C   C29   0.840510  0.751270  0.511050  1.064702
    Co  Co5   0.040770  0.897230  0.525210  1.255962
    C   C30   0.209660  0.059530  0.554250  0.870553
    O   O11   0.043040  0.139420  0.539240  -0.556141
    C   C31   0.063210  0.168380  0.653240  0.980711
    C   C32   0.684120  0.865120  0.618880  0.793753
    C   C33   0.034340  0.778660  0.611770  0.983762
    O   O12   0.010860  0.778980  0.572600  -0.829442
    O   O13   0.016460  0.817080  0.621690  -0.726475
    O   O14   0.001710  0.096380  0.675280  -0.732693
    O   O15   0.076050  0.161260  0.624230  -0.717322
    O   O16   0.730160  0.953280  0.611420  -0.616875
    O   O17   0.717430  0.829830  0.617130  -0.614511
    O   O18   0.824810  0.751620  0.541550  -0.655832
    O   O19   0.167750  0.972190  0.563050  -0.671790
    O   O20   0.174320  0.089780  0.558440  -0.666640
    C   C34   0.063620  0.981460  0.804210  -0.158181
    C   C35   0.032560  0.961050  0.766300  0.022058
    C   C36   0.085050  0.115950  0.908900  0.329805
    C   C37   0.156920  0.060540  0.814720  0.396631
    C   C38   0.795950  0.740920  0.775630  0.304132
    N   N1    0.094700  0.177980  0.908220  -0.393086
    N   N2    0.724790  0.673050  0.769090  -0.393180
    N   N3    0.231640  0.123940  0.823150  -0.432923
    H   H13   0.077310  0.006800  0.744470  0.149385
    H   H14   0.869650  0.801140  0.843090  0.168054
    C   C39   0.076200  0.007630  0.320670  -0.227781
    C   C40   0.091210  0.001850  0.289930  0.075577
    C   C41   0.051050  0.115060  0.383390  -0.062264
    C   C42   0.045750  0.099100  0.349590  -0.014602
    C   C43   0.824510  0.908570  0.409410  0.410279
    C   C44   0.106640  0.173980  0.321490  0.300607
    C   C45   0.183810  0.037600  0.292090  0.366941
    N   N4    0.757520  0.863150  0.421010  -0.443949
    N   N5    0.155390  0.233930  0.298960  -0.400677
    N   N6    0.258060  0.066330  0.293800  -0.419325
    N   N7    0.752500  0.903380  0.269380  -0.432221
    H   H15   0.133400  0.035260  0.346810  0.146798
    H   H16   0.856720  0.875910  0.360540  0.166220
    H   H17   0.108820  0.179570  0.391820  0.141016
    C   C46   0.109860  0.326700  0.622800  0.092290
    C   C47   0.110270  0.258010  0.658210  -0.216030
    C   C48   0.133620  0.266690  0.698130  -0.077702
    C   C49   0.154360  0.341890  0.702550  -0.193972
    C   C50   0.156530  0.411770  0.667360  0.180553
    C   C51   0.132080  0.402790  0.627340  -0.259538
    H   H18   0.089520  0.319870  0.591710  0.077463
    H   H19   0.133080  0.213650  0.725720  0.120865
    H   H20   0.174390  0.348580  0.733640  0.119623
    H   H21   0.134730  0.456880  0.599930  0.122468
    C   C52   0.520090  0.693200  0.690300  -0.262880
    C   C53   0.453990  0.711720  0.670700  0.186798
    C   C54   0.463630  0.780270  0.633470  -0.175346
    C   C55   0.535510  0.826310  0.614960  -0.121361
    C   C56   0.599050  0.804920  0.633600  -0.129065
    C   C57   0.590960  0.738110  0.671320  0.028010
    H   H22   0.513690  0.640760  0.719160  0.140181
    H   H23   0.412710  0.794780  0.617830  0.122309
    H   H24   0.542390  0.879270  0.586270  0.134268
    H   H25   0.640990  0.722640  0.686450  0.123822
    C   C58   0.228720  0.762780  0.650330  -0.160418
    C   C59   0.184890  0.669320  0.669850  0.127222
    C   C60   0.098960  0.618260  0.679340  -0.115934
    C   C61   0.052880  0.657620  0.664920  -0.198344
    C   C62   0.094100  0.749180  0.642530  0.003634
    C   C63   0.185610  0.802920  0.638930  -0.130558
    H   H26   0.293960  0.803590  0.641970  0.119549
    H   H27   0.066310  0.547570  0.696470  0.121401
    H   H28   0.219780  0.874400  0.623250  0.127048
    C   C64   0.262920  0.361210  0.204220  -0.185349
    C   C65   0.271440  0.442400  0.179860  0.151224
    C   C66   0.249540  0.460820  0.136070  -0.138666
    C   C67   0.220540  0.399620  0.116930  -0.152811
    C   C68   0.208470  0.316870  0.141120  -0.114209
    C   C69   0.233050  0.299550  0.184970  -0.076408
    H   H29   0.282560  0.347420  0.238090  0.120753
    H   H30   0.258790  0.524520  0.116900  0.111376
    H   H31   0.201380  0.413750  0.083040  0.126267
    H   H32   0.223900  0.235900  0.204120  0.148591
    C   C70   0.705040  0.738420  0.195400  -0.027460
    C   C71   0.709140  0.799320  0.155770  -0.128068
    C   C72   0.638160  0.811360  0.134220  -0.092931
    C   C73   0.569880  0.771000  0.153760  -0.203131
    C   C74   0.569630  0.715220  0.194630  0.265832
    C   C75   0.637550  0.698900  0.215270  -0.208657
    H   H33   0.759140  0.728050  0.212330  0.084583
    H   H34   0.640020  0.857650  0.103450  0.119512
    H   H35   0.515630  0.781160  0.136720  0.130085
    H   H36   0.636560  0.653750  0.246310  0.119137
    C   C76   0.360670  0.781610  0.189790  -0.204021
    C   C77   0.316300  0.687060  0.205540  0.124401
    C   C78   0.232780  0.633030  0.217900  -0.128527
    C   C79   0.187800  0.670590  0.208620  -0.119294
    C   C80   0.226790  0.762770  0.187810  -0.113456
    C   C81   0.318670  0.819410  0.183780  -0.047207
    H   H37   0.424880  0.825380  0.180020  0.118830
    H   H38   0.200480  0.561330  0.232880  0.120929
    H   H39   0.118650  0.626190  0.213930  0.107337
    H   H40   0.353140  0.891870  0.171000  0.126156
    C   C82   0.792650  0.174140  0.536040  -0.138309
    C   C83   0.723730  0.138690  0.554010  0.020238
    C   C84   0.673930  0.174780  0.536360  -0.198775
    C   C85   0.689930  0.244960  0.499560  0.127965
    C   C86   0.753830  0.275840  0.479660  -0.169503
    H   H41   0.712650  0.086730  0.583180  0.059800
    H   H42   0.625750  0.150840  0.552340  0.120858
    H   H43   0.765680  0.328860  0.450830  0.124407
    C   C87   0.727510  0.590230  0.448310  -0.231667
    C   C88   0.719610  0.514220  0.480180  0.215614
    C   C89   0.747110  0.515010  0.522190  -0.222562
    C   C90   0.779240  0.589900  0.532160  0.032125
    C   C91   0.786700  0.665830  0.500290  -0.271080
    C   C92   0.760830  0.665670  0.458280  -0.028619
    H   H44   0.704970  0.589640  0.415760  0.111897
    H   H45   0.739680  0.455820  0.547010  0.124094
    H   H46   0.768210  0.724660  0.433410  0.126064
    C   C93   0.279350  0.090410  0.503770  0.104463
    C   C94   0.282960  0.121360  0.531020  -0.187604
    C   C95   0.360340  0.207220  0.538560  -0.097039
    C   C96   0.434830  0.260260  0.520190  -0.181139
    C   C97   0.430740  0.229110  0.492790  0.205492
    C   C98   0.351190  0.145290  0.483700  -0.280286
    H   H47   0.221780  0.022730  0.498900  0.008103
    H   H48   0.364660  0.231270  0.559950  0.147253
    H   H49   0.496720  0.324270  0.528170  0.122019
    H   H50   0.346470  0.121110  0.462230  0.151811
    C   C99   0.757690  0.206880  0.983870  -0.150859
    C   C100  0.813390  0.283940  0.999310  0.118022
    C   C101  0.886340  0.195240  0.013940  -0.130544
    C   C102  0.793730  0.162030  0.991700  -0.087549
    H   H51   0.685030  0.178470  0.968200  0.118365
    H   H52   0.747640  0.097580  0.983570  0.117471
    C   C103  0.870430  0.520110  0.051650  -0.216588
    C   C104  0.828690  0.522810  0.008840  0.227322
    C   C105  0.819580  0.593490  0.982420  -0.209470
    C   C106  0.851960  0.660690  0.998610  -0.047882
    C   C107  0.895440  0.658940  0.041290  -0.136703
    C   C108  0.901400  0.586450  0.067920  -0.058636
    H   H53   0.875230  0.464240  0.072630  0.127801
    H   H54   0.785180  0.594970  0.949550  0.120511
    H   H55   0.847940  0.717000  0.977570  0.089948
    C   C109  0.488720  0.138070  0.028220  -0.239296
    C   C110  0.565580  0.223590  0.036270  0.172134
    C   C111  0.567260  0.253670  0.063280  -0.190957
    C   C112  0.489990  0.201360  0.079550  -0.069511
    C   C113  0.412620  0.116590  0.070820  -0.175251
    C   C114  0.413920  0.083830  0.046330  0.054299
    H   H56   0.486490  0.113880  0.007640  0.152233
    H   H57   0.627890  0.318160  0.071130  0.121779
    H   H58   0.491120  0.225960  0.099520  0.131129
    H   H59   0.356650  0.016340  0.041190  0.024444
    C   C115  0.141870  0.012650  0.987920  0.677074
    O   O21   0.201620  0.995120  0.015100  -0.628957
    O   O22   0.109040  0.033550  0.000100  -0.493244
    O   O23   0.871180  0.069620  0.072140  -0.633732
    C   C116  0.020380  0.038020  0.453920  0.816087
    O   O24   0.075920  0.013010  0.476130  -0.680798
    C   C117  0.824000  0.919690  0.276030  0.359670
    H   H60   0.801350  0.590160  0.564730  0.089212
    C   C118  0.095290  0.985650  0.947880  -0.099669
    H   H61   0.867330  0.884620  0.234750  0.159897
    C   C119  0.805510  0.240870  0.498020  -0.075933
    C   C120  0.073000  0.038590  0.909700  0.041288
    C   C121  0.084340  0.911790  0.947350  0.029058
    H   H62   0.102950  0.871800  0.976350  0.073014
    O   O25   0.836470  0.910500  0.692740  -0.808684
    C   C122  0.041610  0.017740  0.871770  -0.168972
    O   O26   0.843540  0.789970  0.619040  -0.576065
    C   C123  0.033900  0.945640  0.871540  0.091989
    C   C124  0.054450  0.892000  0.909660  -0.110008
    C   C125  0.047360  0.817620  0.910330  0.395201
    N   N8    0.041590  0.758030  0.910870  -0.440844
    O   O27   0.045190  0.956480  0.203280  -0.699338
    C   C126  0.003000  0.925720  0.831240  0.144157
    H   H63   0.024710  0.058460  0.842420  0.136248
    Co  Co6   0.048830  0.855960  0.116570  1.323455
    Co  Co7   0.857380  0.891750  0.623380  1.237960
    Co  Co8   0.863780  0.027550  0.645410  1.218262
    C   C127  0.860570  0.152750  0.560960  0.846718
    C   C128  0.884850  0.825350  0.784020  0.093938
    O   O28   0.042810  0.074910  0.190320  -0.707048
    C   C129  0.034620  0.999360  0.214860  0.970464
    O   O29   0.029770  0.811780  0.035020  -0.622211
    H   H64   0.858210  0.268560  0.483720  0.118941
    O   O30   0.035430  0.970580  0.090980  -0.862903
    C   C130  0.016700  0.965020  0.256250  -0.143082
    O   O31   0.890940  0.148290  0.601150  -0.754097
    O   O32   0.887460  0.134390  0.543670  -0.593743
    H   H65   0.018870  0.310070  0.037330  0.143428
    C   C131  0.895930  0.890810  0.709880  1.017122
    O   O33   0.894320  0.999450  0.611350  -0.690549
    C   C132  0.909040  0.323280  0.016790  -0.173149
    C   C133  0.910070  0.130470  0.040130  0.821725
    O   O34   0.994680  0.056110  0.471930  -0.555834
    O   O35   0.990150  0.928380  0.546670  -0.664528
    H   H66   0.982870  0.615500  0.668780  0.131709
    C   C134  0.986920  0.044780  0.408710  -0.189760
    C   C135  0.913150  0.939940  0.284180  -0.042099
    C   C136  0.926390  0.922500  0.257590  -0.134809
    Co  Co9   0.967980  0.085440  0.579560  1.198616
    H   H67   0.935710  0.584800  0.100810  0.132816
    C   C137  0.945830  0.280840  0.022430  -0.066444
    O   O36   0.955060  0.747950  0.086980  -0.617587
    Co  Co10  0.952960  0.075060  0.132220  1.273649
    C   C138  0.960770  0.744160  0.054020  0.803416
    C   C139  0.909320  0.943980  0.365480  -0.270923
    O   O37   0.926350  0.890950  0.685860  -0.725959
    C   C140  0.914750  0.846520  0.821430  -0.229933
    H   H68   0.953770  0.383480  0.028250  0.113281
    O   O38   0.906930  0.825070  0.491650  -0.789081
    C   C141  0.940850  0.886750  0.754680  -0.175735
    C   C142  0.989300  0.984530  0.315880  0.113997
    C   C143  0.907860  0.965650  0.394790  0.118355
    Co  Co11  0.980540  0.927580  0.144300  1.242627
    O   O39   0.997360  0.028820  0.116470  -0.660306
    O   O40   0.981830  0.822180  0.155770  -0.584813
    O   O41   0.981420  0.144890  0.035900  -0.618568
    Co  Co12  0.919840  0.844450  0.579450  1.226465
    O   O42   0.916690  0.959810  0.567400  -0.839048
    C   C144  0.980050  0.010130  0.343220  0.115860
