# Generated by REPEAT Assigner based on pymatgen
data_DB7-ddmof_5262
_audit_creation_date              2022-05-24
_audit_creation_method            REPEAT_Assigner
_cell_length_a                    19.884250
_cell_length_b                    21.233330
_cell_length_c                    44.721920
_cell_angle_alpha                 60.631100
_cell_angle_beta                  119.132420
_cell_angle_gamma                 133.309990
_cell_volume                      11631.996625
_symmetry_space_group_name_H-M    P1
_symmetry_Int_Tables_number       1
loop_
    _symmetry_equiv_pos_site_id
    _symmetry_equiv_pos_as_xyz
    1  x,y,z
loop_
    _atom_site_type_symbol
    _atom_site_label
    _atom_site_fract_x
    _atom_site_fract_y
    _atom_site_fract_z
    _atom_type_partial_charge
    C   C1    0.290940  0.622310  0.162900  1.026154
    C   C2    0.434690  0.645250  0.174660  0.957430
    C   C3    0.289910  0.511250  0.161780  0.884432
    C   C4    0.266260  0.610670  0.662240  0.852324
    C   C5    0.404110  0.637740  0.663480  0.846243
    C   C6    0.257360  0.499990  0.656300  0.831608
    C   C7    0.257100  0.055510  0.045660  0.777896
    C   C8    0.020320  0.993790  0.183250  0.975430
    C   C9    0.116590  0.236050  0.103080  0.981192
    C   C10   0.098270  0.788340  0.099390  0.784062
    C   C11   0.261160  0.030880  0.563240  1.050354
    C   C12   0.084110  0.230300  0.592590  1.099844
    C   C13   0.082970  0.765590  0.617120  1.015004
    C   C14   0.059920  0.014630  0.765740  -0.211453
    C   C15   0.058420  0.009650  0.735090  -0.044155
    C   C16   0.039070  0.077970  0.809010  -0.137331
    C   C17   0.042210  0.088520  0.838530  -0.171665
    C   C18   0.023580  0.967280  0.221320  -0.115001
    C   C19   0.110650  0.014690  0.244660  -0.007525
    C   C20   0.112540  0.017570  0.275880  -0.212727
    C   C21   0.027220  0.971790  0.284560  0.120084
    C   C22   0.085530  0.966990  0.380300  -0.217169
    C   C23   0.081730  0.958410  0.350170  -0.122789
    C   C24   0.203750  0.425540  0.640500  0.040731
    C   C25   0.213690  0.355380  0.660520  -0.296910
    C   C26   0.191400  0.299350  0.643960  0.192389
    C   C27   0.153400  0.309640  0.607220  -0.226763
    C   C28   0.150960  0.383990  0.587100  -0.053127
    C   C29   0.171230  0.438910  0.603480  -0.039772
    C   C30   0.160140  0.510190  0.581910  0.319631
    C   C31   0.210880  0.233600  0.664640  0.290909
    C   C32   0.416610  0.765130  0.595040  0.384012
    C   C33   0.219650  0.645040  0.661800  -0.150284
    C   C34   0.274240  0.735770  0.661230  -0.050184
    C   C35   0.229760  0.773400  0.654420  -0.034426
    C   C36   0.129970  0.722630  0.645580  -0.111906
    C   C37   0.077600  0.629480  0.652660  -0.081516
    C   C38   0.121440  0.590150  0.660730  0.059087
    C   C39   0.066260  0.493980  0.669840  0.322429
    C   C40   0.286910  0.864090  0.656540  0.413165
    C   C41   0.244440  0.439580  0.145820  -0.017739
    C   C42   0.255100  0.370110  0.166850  -0.270771
    C   C43   0.234480  0.313320  0.151290  0.136150
    C   C44   0.193170  0.319230  0.114930  -0.147346
    C   C45   0.193460  0.394700  0.093500  -0.073025
    C   C46   0.217010  0.453810  0.108670  -0.019212
    C   C47   0.216110  0.530560  0.085870  0.331329
    C   C48   0.256860  0.249720  0.172690  0.303699
    C   C49   0.243870  0.666820  0.148060  -0.136815
    C   C50   0.251620  0.724620  0.114530  -0.103204
    C   C51   0.213560  0.772440  0.099730  0.017147
    C   C52   0.166420  0.763680  0.118950  0.018396
    C   C53   0.163930  0.709590  0.153720  -0.141900
    C   C54   0.202230  0.660960  0.168330  0.038105
    C   C55   0.196880  0.604360  0.203710  0.315976
    C   C56   0.216770  0.824460  0.063610  0.384987
    C   C57   0.357710  0.092900  0.557930  -0.139924
    C   C58   0.420680  0.068720  0.578440  -0.104935
    C   C59   0.505990  0.117110  0.569680  -0.060218
    C   C60   0.529720  0.191430  0.540490  -0.025126
    C   C61   0.466560  0.215030  0.519720  -0.169487
    C   C62   0.381290  0.166880  0.528400  0.096282
    C   C63   0.317340  0.192560  0.506330  0.297251
    C   C64   0.496290  0.221260  0.002550  -0.130555
    C   C65   0.493270  0.158900  0.035150  -0.092216
    C   C66   0.418730  0.108970  0.050910  -0.014830
    C   C67   0.344520  0.119260  0.033400  -0.017515
    C   C68   0.346110  0.179630  0.000340  -0.024462
    C   C69   0.420340  0.229060  0.984490  -0.033341
    C   C70   0.417790  0.287070  0.949480  0.341250
    C   C71   0.420300  0.049260  0.085570  0.372099
    C   C72   0.587060  0.291210  0.992330  0.947203
    C   C73   0.626010  0.254140  0.535390  1.042975
    C   C74   0.569120  0.800590  0.602320  -0.106180
    C   C75   0.493680  0.756370  0.616640  -0.002132
    C   C76   0.493010  0.703260  0.651710  -0.064786
    C   C77   0.568270  0.695250  0.671780  -0.225898
    C   C78   0.673560  0.743760  0.168580  -0.010666
    C   C79   0.599140  0.698700  0.183700  -0.008113
    C   C80   0.526480  0.711170  0.164830  -0.141702
    C   C81   0.531300  0.771110  0.131390  -0.169411
    C   C82   0.605940  0.816370  0.116400  0.181885
    C   C83   0.598650  0.640930  0.218900  0.328238
    C   C84   0.603720  0.170060  0.463700  0.330323
    C   C85   0.568790  0.089970  0.590740  0.356917
    C   C86   0.051880  0.019940  0.963500  0.950348
    C   C87   0.071390  0.997030  0.475720  1.031161
    C   C88   0.018900  0.024600  0.925860  -0.296272
    C   C89   0.029190  0.979050  0.316820  0.088949
    C   C90   0.646340  0.795850  0.622950  -0.144471
    C   C91   0.643760  0.739780  0.657390  0.190745
    C   C92   0.679270  0.804990  0.135500  -0.212229
    C   C93   0.607520  0.875450  0.081460  0.187700
    C   C94   0.036730  0.996110  0.377660  0.250593
    C   C95   0.040540  0.003010  0.409600  -0.026447
    C   C96   0.050020  0.004130  0.438490  -0.297598
    C   C97   0.701090  0.200310  0.481220  0.025294
    C   C98   0.724780  0.437520  0.993110  0.896155
    C   C99   0.720440  0.730390  0.678620  0.234785
    C   C100  0.710890  0.101940  0.979810  0.289936
    C   C101  0.744260  0.706340  0.957060  0.335703
    C   C102  0.990190  0.324150  0.499100  0.370320
    C   C103  0.974840  0.994420  0.672610  0.958969
    C   C104  0.972730  0.971630  0.709570  -0.040204
    C   C105  0.975520  0.981170  0.771380  0.103943
    C   C106  0.977840  0.992780  0.802560  0.086520
    C   C107  0.730680  0.330630  0.992790  0.956029
    C   C108  0.734990  0.301630  0.508340  0.838509
    C   C109  0.761720  0.402260  0.528840  0.994824
    C   C110  0.875160  0.747130  0.025000  0.887847
    C   C111  0.772610  0.875210  0.127240  0.990821
    C   C112  0.872620  0.133120  0.040640  0.957473
    C   C113  0.880230  0.726740  0.535290  0.818648
    C   C114  0.738130  0.869840  0.613750  0.896746
    C   C115  0.851750  0.122080  0.523380  0.780670
    C   C116  0.887720  0.933310  0.716370  -0.190290
    C   C117  0.889080  0.938280  0.746920  -0.092827
    C   C118  0.983630  0.014280  0.861820  0.204381
    C   C119  0.920790  0.929560  0.854910  -0.197928
    C   C120  0.917920  0.918810  0.825530  -0.130507
    C   C121  0.999980  0.022110  0.895910  0.006837
    C   C122  0.940240  0.918830  0.262630  -0.100992
    C   C123  0.938510  0.916220  0.231360  -0.200154
    C   C124  0.980010  0.008120  0.314140  -0.146269
    C   C125  0.983720  0.016490  0.344440  -0.195136
    C   C126  0.767140  0.278540  0.493810  -0.030814
    C   C127  0.864730  0.320500  0.500220  -0.187969
    C   C128  0.894160  0.275690  0.500730  0.135841
    C   C129  0.826970  0.185370  0.499520  -0.143337
    C   C130  0.730710  0.151770  0.485720  -0.117687
    C   C131  0.810780  0.493320  0.530180  -0.136917
    C   C132  0.833750  0.505790  0.562850  -0.234014
    C   C133  0.836060  0.571720  0.564280  0.234828
    C   C134  0.832000  0.636180  0.533270  -0.167419
    C   C135  0.810470  0.624760  0.500550  -0.161411
    C   C136  0.801870  0.555160  0.498910  0.109582
    C   C137  0.781170  0.546230  0.464880  0.312629
    C   C138  0.833970  0.567830  0.596980  0.270291
    C   C139  0.784480  0.302360  0.995330  -0.217259
    C   C140  0.735570  0.231900  0.980350  -0.122109
    C   C141  0.766600  0.178490  0.993440  0.106511
    C   C142  0.850450  0.198830  0.020250  -0.137289
    C   C143  0.907750  0.278110  0.030660  -0.282852
    C   C144  0.874910  0.329370  0.018830  0.224146
    C   C145  0.934420  0.408860  0.031070  0.227691
    C   C146  0.773160  0.521480  0.000920  0.002209
    C   C147  0.752720  0.582160  0.974990  -0.206712
    C   C148  0.771540  0.648290  0.983960  0.075762
    C   C149  0.817960  0.658760  0.018840  -0.201695
    C   C150  0.835010  0.595960  0.045100  0.005324
    C   C151  0.814070  0.528300  0.036300  -0.068429
    C   C152  0.832410  0.464580  0.063890  0.376611
    Co  Co1   0.024480  0.101870  0.065630  1.256353
    Co  Co2   0.079650  0.036600  0.032860  1.259360
    Co  Co3   0.077100  0.889350  0.026260  1.288421
    Co  Co4   0.010920  0.094080  0.560640  1.220510
    Co  Co5   0.083070  0.020800  0.540210  1.244274
    Co  Co6   0.084310  0.865710  0.542270  1.285335
    Co  Co7   0.989840  0.857370  0.081020  1.296635
    Co  Co8   0.947400  0.928000  0.118260  1.235649
    Co  Co9   0.930440  0.072140  0.117870  1.265073
    Co  Co10  0.974390  0.841990  0.585920  1.249644
    Co  Co11  0.921190  0.922520  0.612770  1.226439
    Co  Co12  0.892960  0.068530  0.601320  1.295011
    H   H1    0.126920  0.045940  0.784690  0.137816
    H   H2    0.124450  0.038600  0.730600  0.119479
    H   H3    0.084730  0.135930  0.791370  0.118285
    H   H4    0.091900  0.154090  0.843690  0.149875
    H   H5    0.176920  0.052960  0.237820  0.107738
    H   H6    0.180330  0.057410  0.292750  0.139365
    H   H7    0.126340  0.950660  0.405760  0.169490
    H   H8    0.119460  0.935440  0.352830  0.121281
    H   H9    0.243640  0.347450  0.688800  0.173087
    H   H10   0.124930  0.394420  0.558750  0.129506
    H   H11   0.350900  0.777490  0.665480  0.127029
    H   H12   0.283850  0.363040  0.195140  0.196319
    H   H13   0.166600  0.402690  0.065130  0.131867
    H   H14   0.286830  0.731730  0.099490  0.173293
    H   H15   0.127880  0.701440  0.168700  0.171487
    H   H16   0.401740  0.010490  0.600580  0.176935
    H   H17   0.485330  0.272690  0.497270  0.152097
    H   H18   0.287420  0.185400  0.986350  0.125518
    H   H19   0.570960  0.843800  0.575810  0.147224
    H   H20   0.566430  0.651940  0.698270  0.171363
    H   H21   0.474120  0.778940  0.116240  0.157963
    H   H22   0.669350  0.214480  0.960420  0.160546
    H   H23   0.717380  0.574820  0.948060  0.172077
    H   H24   0.552010  0.153220  0.049210  0.149484
    H   H25   0.001510  0.588190  0.649420  0.122806
    H   H26   0.678490  0.085510  0.480980  0.172722
    H   H27   0.730720  0.735890  0.183620  0.116113
    H   H28   0.821080  0.904170  0.696990  0.134791
    H   H29   0.823250  0.911450  0.750890  0.108355
    H   H30   0.876160  0.871450  0.872860  0.174864
    H   H31   0.870340  0.852750  0.821060  0.107514
    H   H32   0.873860  0.881070  0.269350  0.116719
    H   H33   0.870680  0.878650  0.213950  0.142746
    H   H34   0.939580  0.024820  0.288660  0.121708
    H   H35   0.945530  0.038800  0.341950  0.153276
    H   H36   0.917190  0.385740  0.505880  0.151569
    H   H37   0.838970  0.457540  0.587010  0.175999
    H   H38   0.805590  0.673180  0.476420  0.176279
    H   H39   0.976440  0.298370  0.048920  0.206999
    H   H40   0.869930  0.602990  0.072060  0.126694
    N   N1    0.387690  0.673590  0.172060  -0.882747
    N   N2    0.385330  0.560140  0.174010  -0.786381
    N   N3    0.241870  0.541800  0.156550  -0.850118
    N   N4    0.361820  0.665650  0.665080  -0.776531
    N   N5    0.353150  0.552130  0.663100  -0.776937
    N   N6    0.213150  0.529210  0.655770  -0.712453
    N   N7    0.151180  0.567220  0.564640  -0.384977
    N   N8    0.226910  0.181140  0.681140  -0.374931
    N   N9    0.354940  0.772190  0.577770  -0.418704
    N   N10   0.021770  0.416880  0.677140  -0.424708
    N   N11   0.332570  0.936650  0.658430  -0.431290
    N   N12   0.215610  0.592140  0.067620  -0.406914
    N   N13   0.275330  0.199060  0.189730  -0.379488
    N   N14   0.192610  0.558970  0.232080  -0.398608
    N   N15   0.219600  0.864880  0.034540  -0.486877
    N   N16   0.066900  0.362820  0.497410  -0.423783
    N   N17   0.266270  0.213260  0.488630  -0.380395
    N   N18   0.415770  0.333550  0.921440  -0.405952
    N   N19   0.421460  0.001380  0.113300  -0.436076
    N   N20   0.636740  0.268790  0.992560  -0.848921
    N   N21   0.630530  0.376220  0.991220  -0.825020
    N   N22   0.653130  0.236490  0.519700  -0.842400
    N   N23   0.681710  0.335820  0.540860  -0.934273
    N   N24   0.598260  0.594650  0.247090  -0.393455
    N   N25   0.525690  0.145800  0.449650  -0.405097
    N   N26   0.619060  0.068200  0.607580  -0.438717
    N   N27   0.722520  0.752900  0.935500  -0.402941
    N   N28   0.666250  0.040590  0.968880  -0.378947
    N   N29   0.608700  0.922730  0.053470  -0.304701
    N   N30   0.764580  0.539040  0.437630  -0.414462
    N   N31   0.775270  0.415470  0.993340  -0.824006
    N   N32   0.789370  0.385600  0.512550  -0.798810
    N   N33   0.781950  0.723010  0.695620  -0.359183
    N   N34   0.831710  0.564540  0.623120  -0.380340
    N   N35   0.982370  0.472610  0.040900  -0.312890
    N   N36   0.846990  0.413490  0.086010  -0.437137
    O   O1    0.030150  0.069270  0.163920  -0.707563
    O   O2    0.092750  0.141890  0.031160  -0.574161
    O   O3    0.019470  0.948250  0.170180  -0.679103
    O   O4    0.051610  0.777820  0.067590  -0.741483
    O   O5    0.095020  0.833260  0.110700  -0.656418
    O   O6    0.029150  0.204590  0.098160  -0.815003
    O   O7    0.134140  0.196690  0.095240  -0.662514
    O   O8    0.040470  0.929170  0.046650  -0.723120
    O   O9    0.215350  0.969630  0.052470  -0.501566
    O   O10   0.222090  0.084990  0.050050  -0.711845
    O   O11   0.094980  0.129840  0.533760  -0.498319
    O   O12   0.052520  0.756290  0.585360  -0.802036
    O   O13   0.073110  0.814100  0.622860  -0.688059
    O   O14   0.109650  0.189890  0.590110  -0.688819
    O   O15   0.038740  0.911490  0.555350  -0.698924
    O   O16   0.218810  0.944520  0.570810  -0.744264
    O   O17   0.223010  0.061670  0.564620  -0.707096
    O   O18   0.108870  0.996250  0.982630  -0.767375
    O   O19   0.025360  0.038200  0.978520  -0.565398
    O   O20   0.124960  0.970390  0.498260  -0.815402
    O   O21   0.043660  0.022430  0.486640  -0.605237
    O   O22   0.994950  0.199880  0.581830  -0.855300
    O   O23   0.983050  0.068390  0.650950  -0.747272
    O   O24   0.982430  0.948540  0.663320  -0.669379
    O   O25   0.965300  0.028780  0.097970  -0.686466
    O   O26   0.942750  0.825250  0.121510  -0.575541
    O   O27   0.983000  0.970970  0.067460  -0.843621
    O   O28   0.829970  0.943540  0.141060  -0.798008
    O   O29   0.804290  0.859540  0.113560  -0.637657
    O   O30   0.838160  0.073560  0.068820  -0.659985
    O   O31   0.931220  0.138470  0.031500  -0.632618
    O   O32   0.934430  0.816200  0.004460  -0.641089
    O   O33   0.878650  0.753270  0.054450  -0.618811
    O   O34   0.940960  0.023040  0.589460  -0.664110
    O   O35   0.915940  0.815420  0.621210  -0.520145
    O   O36   0.972270  0.961000  0.566950  -0.881124
    O   O37   0.787450  0.942500  0.623640  -0.764443
    O   O38   0.776180  0.856820  0.602030  -0.617376
    O   O39   0.811000  0.063310  0.550230  -0.625240
    O   O40   0.922640  0.132740  0.520180  -0.584783
    O   O41   0.944290  0.794360  0.516570  -0.667830
    O   O42   0.869730  0.737890  0.559490  -0.583814
