# Generated by REPEAT Assigner based on pymatgen
data_DB7-ddmof_21319
_audit_creation_date              2022-05-24
_audit_creation_method            REPEAT_Assigner
_cell_length_a                    17.122290
_cell_length_b                    17.770360
_cell_length_c                    53.681310
_cell_angle_alpha                 88.461440
_cell_angle_beta                  88.536560
_cell_angle_gamma                 108.207890
_cell_volume                      15500.237325
_symmetry_space_group_name_H-M    P1
_symmetry_Int_Tables_number       1
loop_
    _symmetry_equiv_pos_site_id
    _symmetry_equiv_pos_as_xyz
    1  x,y,z
loop_
    _atom_site_type_symbol
    _atom_site_label
    _atom_site_fract_x
    _atom_site_fract_y
    _atom_site_fract_z
    _atom_type_partial_charge
    C   C1    0.714080  0.172250  0.851420  0.724304
    C   C2    0.465220  0.291530  0.851780  0.700684
    C   C3    0.738010  0.234670  0.702180  0.720334
    C   C4    0.639980  0.431670  0.639710  0.778045
    C   C5    0.531680  0.078410  0.621640  0.617472
    C   C6    0.391390  0.295480  0.629740  0.682869
    C   C7    0.439580  0.086230  0.685920  0.916005
    C   C8    0.606400  0.471770  0.705730  0.542817
    C   C9    0.180500  0.092640  0.807160  0.786765
    C   C10   0.169680  0.964470  0.753440  1.192728
    C   C11   0.194490  0.872640  0.352080  0.693148
    C   C12   0.399440  0.775290  0.414010  1.055099
    C   C13   0.033590  0.668750  0.437880  0.747519
    C   C14   0.260240  0.535610  0.426300  0.794402
    C   C15   0.044240  0.582780  0.374860  1.101429
    C   C16   0.446110  0.755090  0.346690  0.528220
    C   C17   0.529450  0.777000  0.122850  0.825140
    C   C18   0.276910  0.621590  0.194830  0.676543
    C   C19   0.477540  0.993020  0.195620  0.967988
    C   C20   0.166010  0.816640  0.193690  0.696264
    C   C21   0.394480  0.950350  0.128920  1.046644
    C   C22   0.235920  0.587430  0.126790  0.932531
    C   C23   0.119300  0.115600  0.294180  0.949923
    C   C24   0.745540  0.980190  0.310140  0.787461
    C   C25   0.753700  0.095940  0.258070  0.925865
    C   C26   0.150930  0.325880  0.251570  0.747120
    C   C27   0.248090  0.550770  0.211960  -0.038029
    C   C28   0.297120  0.501320  0.215580  -0.165699
    C   C29   0.265160  0.428360  0.228590  -0.085468
    C   C30   0.183710  0.403520  0.238140  -0.283959
    C   C31   0.134090  0.453630  0.234860  0.367534
    C   C32   0.167840  0.527980  0.222530  -0.083481
    C   C33   0.534420  0.016640  0.215980  -0.091531
    C   C34   0.567310  0.096630  0.221680  -0.181754
    C   C35   0.635970  0.121360  0.236660  -0.046067
    C   C36   0.674550  0.066800  0.245220  -0.376927
    C   C37   0.639540  0.985050  0.239820  0.631195
    C   C38   0.568310  0.961090  0.225980  -0.378935
    C   C39   0.109250  0.844910  0.209380  0.042826
    C   C40   0.132070  0.874030  0.233080  -0.199736
    C   C41   0.084820  0.912590  0.246080  -0.124277
    C   C42   0.015190  0.923710  0.235350  -0.260984
    C   C43   0.985810  0.884940  0.213210  0.538913
    C   C44   0.033890  0.846870  0.200110  -0.382006
    C   C45   0.524620  0.800340  0.333630  0.277026
    C   C46   0.524830  0.853900  0.313980  -0.487772
    C   C47   0.598370  0.908890  0.305170  0.076512
    C   C48   0.673530  0.909530  0.315140  -0.233943
    C   C49   0.674800  0.850760  0.333360  0.505255
    C   C50   0.599960  0.796530  0.342520  -0.431136
    C   C51   0.994290  0.519270  0.359470  -0.310267
    C   C52   0.997520  0.529420  0.333420  -0.105846
    C   C53   0.948860  0.445850  0.370640  -0.208615
    C   C54   0.185690  0.945800  0.340520  -0.064101
    C   C55   0.239700  0.987780  0.321080  -0.095758
    C   C56   0.219130  0.045190  0.306470  -0.122724
    C   C57   0.142380  0.057340  0.310230  -0.327031
    C   C58   0.086840  0.011590  0.328930  0.589959
    C   C59   0.113850  0.964940  0.345900  -0.306678
    C   C60   0.518860  0.025370  0.600600  0.100466
    C   C61   0.583330  0.999390  0.591540  -0.205473
    C   C62   0.578050  0.964450  0.568330  -0.082598
    C   C63   0.508100  0.954920  0.554160  0.101441
    C   C64   0.441410  0.975770  0.564030  -0.181424
    C   C65   0.446770  0.010850  0.587130  -0.161331
    C   C66   0.506570  0.928190  0.528420  0.138177
    C   C67   0.499320  0.848980  0.523910  -0.151523
    C   C68   0.486790  0.821170  0.499750  -0.179071
    C   C69   0.481570  0.872430  0.480000  0.138795
    C   C70   0.492750  0.952440  0.484290  -0.115188
    C   C71   0.505390  0.980330  0.508420  -0.244935
    C   C72   0.455740  0.841020  0.456080  0.066306
    C   C73   0.431450  0.812610  0.436520  -0.455279
    C   C74   0.685190  0.473900  0.617060  -0.160328
    C   C75   0.646800  0.512710  0.600500  -0.024549
    C   C76   0.978500  0.654210  0.459300  -0.189079
    C   C77   0.337440  0.298050  0.609110  0.057198
    C   C78   0.315260  0.234770  0.592850  -0.151031
    C   C79   0.285980  0.245120  0.569370  -0.170382
    C   C80   0.278090  0.318610  0.562030  0.090719
    C   C81   0.292670  0.379370  0.579170  -0.137542
    C   C82   0.322110  0.369070  0.602670  -0.145504
    C   C83   0.265730  0.335520  0.535670  0.161853
    C   C84   0.195450  0.354540  0.528860  -0.199823
    C   C85   0.189890  0.382620  0.504610  -0.111763
    C   C86   0.254700  0.392190  0.487070  0.113523
    C   C87   0.322670  0.368700  0.493430  -0.090996
    C   C88   0.328160  0.340300  0.517640  -0.242321
    C   C89   0.257580  0.438010  0.464360  -0.007225
    C   C90   0.259550  0.480350  0.446290  -0.223167
    C   C91   0.373100  0.036560  0.702890  -0.196560
    C   C92   0.385700  0.031290  0.728540  -0.161469
    C   C93   0.319060  0.996730  0.745130  0.031082
    C   C94   0.239110  0.968060  0.736330  -0.541094
    C   C95   0.227730  0.963910  0.710330  0.688057
    C   C96   0.294890  0.999210  0.693760  -0.307039
    C   C97   0.652960  0.547160  0.716580  0.285771
    C   C98   0.612980  0.601530  0.723690  -0.346365
    C   C99   0.057840  0.423140  0.064630  -0.198014
    C   C100  0.141970  0.464570  0.065620  0.278234
    C   C101  0.191810  0.478280  0.043780  -0.211939
    C   C102  0.174380  0.503570  0.088020  -0.067420
    C   C103  0.201950  0.539820  0.106160  -0.302070
    C   C104  0.375290  0.985950  0.105790  -0.224042
    C   C105  0.370310  0.945440  0.083500  -0.059583
    C   C106  0.369610  0.984650  0.060660  -0.198564
    C   C107  0.373580  0.064730  0.059870  0.145035
    C   C108  0.372210  0.103550  0.082270  -0.170983
    C   C109  0.372980  0.064190  0.105170  -0.076040
    C   C110  0.389730  0.110070  0.035800  0.066689
    C   C111  0.463400  0.172610  0.031670  -0.093549
    C   C112  0.485310  0.207480  0.007810  -0.246432
    C   C113  0.336600  0.085030  0.016020  -0.147740
    C   C114  0.655250  0.696470  0.007360  0.088012
    C   C115  0.628550  0.763090  0.009860  -0.126398
    C   C116  0.611060  0.785970  0.033550  -0.249721
    C   C117  0.620790  0.742790  0.054830  0.261782
    C   C118  0.651430  0.678850  0.052410  -0.191658
    C   C119  0.668410  0.655590  0.028790  -0.175829
    C   C120  0.590860  0.758180  0.078800  -0.053481
    C   C121  0.563870  0.768160  0.098940  -0.233830
    C   C122  0.716950  0.104850  0.836440  -0.130104
    C   C123  0.702520  0.103870  0.810510  0.424432
    C   C124  0.725210  0.049310  0.795770  -0.122998
    C   C125  0.243740  0.159040  0.817470  0.037968
    C   C126  0.314400  0.198750  0.802930  -0.116552
    C   C127  0.385430  0.244390  0.814210  -0.296665
    C   C128  0.386910  0.250350  0.840220  -0.089196
    C   C129  0.314120  0.213210  0.854940  0.591604
    C   C130  0.242440  0.169770  0.843200  -0.442344
    C   C131  0.878890  0.225910  0.697600  -0.338485
    C   C132  0.657940  0.674630  0.732950  0.000726
    C   C133  0.156680  0.455670  0.020820  -0.159385
    C   C134  0.686420  0.546470  0.577940  -0.191235
    C   C135  0.964240  0.464450  0.318610  -0.168850
    C   C136  0.914370  0.380450  0.355850  0.446122
    C   C137  0.935250  0.640720  0.478010  -0.066917
    C   C138  0.815790  0.235430  0.713060  -0.031366
    C   C139  0.738590  0.567160  0.718160  -0.360318
    C   C140  0.867740  0.461440  0.867570  1.011711
    C   C141  0.990930  0.747540  0.811720  0.635537
    C   C142  0.804370  0.954180  0.790160  0.862447
    C   C143  0.958830  0.104280  0.740270  0.837788
    C   C144  0.788250  0.766480  0.747910  0.826675
    C   C145  0.929390  0.319740  0.315440  0.732368
    C   C146  0.989390  0.991420  0.242880  0.917013
    C   C147  0.928170  0.388650  0.329680  -0.107891
    C   C148  0.764780  0.471590  0.611110  -0.073804
    C   C149  0.804410  0.505600  0.588540  -0.206741
    C   C150  0.764900  0.542200  0.571730  0.153773
    C   C151  0.804360  0.573100  0.547230  0.114230
    C   C152  0.877750  0.636790  0.545710  -0.170785
    C   C153  0.918750  0.661770  0.522650  -0.183269
    C   C154  0.886690  0.623210  0.500970  0.193718
    C   C155  0.811870  0.561440  0.502330  -0.130735
    C   C156  0.770720  0.536490  0.525380  -0.214200
    C   C157  0.938530  0.196490  0.707620  0.009373
    C   C158  0.933820  0.174170  0.733040  -0.341311
    C   C159  0.881890  0.200710  0.749220  0.584025
    C   C160  0.820250  0.227680  0.738990  -0.304559
    C   C161  0.743520  0.694680  0.734880  -0.343792
    C   C162  0.784720  0.641620  0.726470  0.459301
    C   C163  0.071560  0.419130  0.019610  0.112734
    C   C164  0.022710  0.400360  0.041690  -0.210381
    C   C165  0.763500  0.997480  0.806410  -0.205256
    C   C166  0.771250  0.994500  0.832320  -0.090552
    C   C167  0.747820  0.047610  0.847220  -0.233232
    C   C168  0.916830  0.525160  0.850340  -0.245956
    C   C169  0.979860  0.588150  0.859540  -0.123273
    C   C170  0.012080  0.658570  0.845320  -0.079200
    C   C171  0.980590  0.667180  0.821920  -0.157698
    C   C172  0.924910  0.600270  0.811250  0.543965
    C   C173  0.892500  0.529720  0.825750  -0.299542
    C   C174  0.516820  0.275180  0.918540  0.843279
    C   C175  0.658970  0.514510  0.922000  0.693284
    C   C176  0.882960  0.376440  0.931680  0.573305
    C   C177  0.663460  0.574810  0.940510  0.061545
    C   C178  0.484770  0.239540  0.942470  -0.296801
    C   C179  0.593350  0.596100  0.946790  -0.140118
    C   C180  0.941860  0.391950  0.951830  0.135459
    C   C181  0.734730  0.603700  0.954220  -0.176757
    C   C182  0.974450  0.332760  0.960170  -0.209292
    C   C183  0.460230  0.211680  0.963000  -0.056257
    C   C184  0.958230  0.462660  0.964680  -0.178494
    C   C185  0.592390  0.640630  0.967790  -0.132263
    C   C186  0.734150  0.649080  0.975020  -0.130745
    C   C187  0.661870  0.664850  0.982530  0.090312
    C   C188  0.019240  0.342550  0.981960  -0.115242
    C   C189  0.433930  0.180090  0.987890  0.225274
    C   C190  0.003220  0.472510  0.986340  -0.159458
    C   C191  0.358810  0.119830  0.992120  -0.189133
    C   C192  0.032170  0.411790  0.995380  0.117016
    H   H1    0.694630  0.406390  0.855670  0.389351
    H   H2    0.486430  0.253060  0.698490  0.362884
    H   H3    0.650550  0.262100  0.639240  0.366718
    H   H4    0.218430  0.637840  0.358180  0.387626
    H   H5    0.221850  0.786240  0.416750  0.363936
    H   H6    0.301440  0.794430  0.129230  0.330987
    H   H7    0.433220  0.792660  0.193590  0.402030
    H   H8    0.303750  0.390890  0.231170  0.173005
    H   H9    0.129860  0.566100  0.220000  0.065097
    H   H10   0.359680  0.518770  0.207990  0.088233
    H   H11   0.661540  0.183610  0.240560  0.125820
    H   H12   0.542070  0.899140  0.221660  0.118355
    H   H13   0.541490  0.140090  0.213860  0.120540
    H   H14   0.720250  0.941720  0.260380  0.386525
    H   H15   0.650810  0.871150  0.241910  0.378695
    H   H16   0.013710  0.820990  0.182400  0.180311
    H   H17   0.188000  0.869510  0.241040  0.198300
    H   H18   0.596420  0.954700  0.291730  0.118408
    H   H19   0.600450  0.753560  0.357180  0.220381
    H   H20   0.467470  0.855830  0.306360  0.263292
    H   H21   0.803530  0.885310  0.335760  0.367455
    H   H22   0.747030  0.804790  0.356410  0.389619
    H   H23   0.942280  0.438980  0.390790  0.146822
    H   H24   0.030340  0.586490  0.324580  0.128230
    H   H25   0.261580  0.078240  0.291790  0.122669
    H   H26   0.073040  0.934230  0.361290  0.076561
    H   H27   0.296130  0.974640  0.316830  0.139333
    H   H28   0.639110  0.009950  0.601850  0.106708
    H   H29   0.629410  0.947510  0.560980  0.092680
    H   H30   0.386500  0.967130  0.553410  0.134556
    H   H31   0.396140  0.029610  0.594140  0.153203
    H   H32   0.500600  0.808430  0.539220  0.110172
    H   H33   0.478430  0.759230  0.496540  0.162790
    H   H34   0.489110  0.992460  0.469090  0.118287
    H   H35   0.511790  0.041830  0.511710  0.157860
    H   H36   0.655790  0.575220  0.565160  0.108346
    H   H37   0.585920  0.515960  0.604990  0.098369
    H   H38   0.786780  0.531260  0.485660  0.141098
    H   H39   0.325410  0.179130  0.597830  0.126617
    H   H40   0.273350  0.197360  0.556430  0.115287
    H   H41   0.285690  0.436050  0.573780  0.115036
    H   H42   0.338270  0.418110  0.615130  0.140140
    H   H43   0.146580  0.350260  0.542580  0.118144
    H   H44   0.136970  0.400420  0.499800  0.134523
    H   H45   0.372940  0.375760  0.479970  0.115275
    H   H46   0.382500  0.325310  0.522700  0.165649
    H   H47   0.877710  0.234820  0.677580  0.149465
    H   H48   0.328650  0.998460  0.765010  0.110503
    H   H49   0.285830  0.999010  0.673840  0.149158
    H   H50   0.446230  0.057870  0.735790  0.109604
    H   H51   0.103190  0.895360  0.713120  0.397720
    H   H52   0.143640  0.926670  0.682070  0.422204
    H   H53   0.546910  0.586790  0.722340  0.137789
    H   H54   0.018980  0.411890  0.081450  0.147045
    H   H55   0.257030  0.509850  0.044410  0.159818
    H   H56   0.370440  0.884470  0.083810  0.094564
    H   H57   0.370000  0.953900  0.043520  0.140482
    H   H58   0.373950  0.165040  0.081890  0.111750
    H   H59   0.375960  0.095760  0.122290  0.124099
    H   H60   0.505030  0.192230  0.046740  0.117833
    H   H61   0.543190  0.254490  0.004700  0.172969
    H   H62   0.279340  0.037180  0.019030  0.109179
    H   H63   0.587650  0.835700  0.035300  0.176840
    H   H64   0.659270  0.645350  0.068810  0.152532
    H   H65   0.688860  0.604020  0.027090  0.144523
    H   H66   0.716400  0.049760  0.775840  0.092033
    H   H67   0.653740  0.198950  0.809710  0.425076
    H   H68   0.658420  0.154340  0.780470  0.459940
    H   H69   0.440340  0.273090  0.802780  0.225987
    H   H70   0.187400  0.139210  0.854370  0.154186
    H   H71   0.315720  0.190730  0.783000  0.114080
    H   H72   0.982750  0.974460  0.816020  0.392100
    H   H73   0.106120  0.939510  0.263550  0.179807
    H   H74   0.947970  0.200920  0.781560  0.382434
    H   H75   0.625960  0.714990  0.739160  0.155653
    H   H76   0.194930  0.469940  0.003870  0.118082
    H   H77   0.998660  0.878070  0.747740  0.404349
    H   H78   0.973100  0.471730  0.298520  0.161692
    H   H79   0.022810  0.370950  0.248310  0.293103
    H   H80   0.018840  0.468640  0.241330  0.387841
    H   H81   0.903780  0.665860  0.562440  0.118577
    H   H82   0.930840  0.653000  0.775500  0.386702
    H   H83   0.858570  0.555330  0.779780  0.419728
    H   H84   0.873120  0.908600  0.214560  0.363600
    H   H85   0.891970  0.858820  0.187500  0.390224
    H   H86   0.862860  0.303050  0.386270  0.392222
    H   H87   0.769790  0.526100  0.711950  0.151847
    H   H88   0.000510  0.584200  0.878300  0.100516
    H   H89   0.945290  0.213450  0.251380  0.479065
    H   H90   0.932610  0.105820  0.319690  0.319796
    H   H91   0.840460  0.261270  0.356220  0.281771
    H   H92   0.979380  0.008390  0.311170  0.412886
    H   H93   0.965910  0.976340  0.343320  0.405721
    H   H94   0.795120  0.441730  0.623620  0.110936
    H   H95   0.865080  0.502070  0.583890  0.125326
    H   H96   0.976600  0.709560  0.521730  0.154495
    H   H97   0.713900  0.487440  0.526370  0.139901
    H   H98   0.982320  0.182270  0.695180  0.126417
    H   H99   0.774800  0.240520  0.751130  0.192450
    H   H100  0.851500  0.218730  0.786050  0.368874
    H   H101  0.904570  0.720930  0.728600  0.288216
    H   H102  0.898040  0.622130  0.720430  0.354193
    H   H103  0.956960  0.371640  0.040930  0.152848
    H   H104  0.757960  0.047150  0.867060  0.147636
    H   H105  0.799390  0.953850  0.840830  0.115149
    H   H106  0.056660  0.708670  0.853350  0.105220
    H   H107  0.845810  0.479900  0.818290  0.153595
    H   H108  0.367390  0.239450  0.889870  0.439516
    H   H109  0.258960  0.190190  0.890770  0.397336
    H   H110  0.693450  0.260040  0.917310  0.374220
    H   H111  0.538170  0.574500  0.936230  0.132333
    H   H112  0.789620  0.588580  0.949270  0.126488
    H   H113  0.962310  0.277990  0.950370  0.101896
    H   H114  0.934250  0.509140  0.958240  0.171407
    H   H115  0.536380  0.652840  0.973320  0.118567
    H   H116  0.318430  0.098850  0.976840  0.139623
    H   H117  0.788640  0.668880  0.985980  0.108875
    H   H118  0.042000  0.295620  0.988740  0.118909
    H   H119  0.619080  0.795610  0.993460  0.099028
    H   H120  0.013750  0.526510  0.996480  0.124056
    N   N1    0.053360  0.429520  0.242500  -0.822493
    N   N2    0.674070  0.929540  0.247570  -0.953281
    N   N3    0.746940  0.847210  0.342550  -0.915145
    N   N4    0.152540  0.926870  0.701260  -1.042868
    N   N5    0.669250  0.156170  0.799550  -0.918836
    N   N6    0.313610  0.215590  0.880270  -0.963817
    N   N7    0.005400  0.002160  0.328110  -0.941289
    N   N8    0.902440  0.603660  0.787240  -0.934432
    N   N9    0.912190  0.885060  0.204340  -0.884943
    N   N10   0.870190  0.309600  0.366860  -0.876751
    N   N11   0.893240  0.203860  0.774160  -0.849966
    N   N12   0.868320  0.662930  0.725500  -0.776293
    O   O1    0.667060  0.386510  0.872060  -1.213070
    O   O2    0.469530  0.351220  0.866270  -0.768686
    O   O3    0.529660  0.267730  0.847620  -0.706967
    O   O4    0.642260  0.183340  0.856150  -0.679617
    O   O5    0.562160  0.059680  0.642420  -0.677979
    O   O6    0.510990  0.143600  0.619550  -0.691440
    O   O7    0.511320  0.280880  0.682610  -1.121088
    O   O8    0.383740  0.329520  0.650790  -0.741638
    O   O9    0.420850  0.121230  0.666190  -0.705305
    O   O10   0.455490  0.271650  0.625300  -0.628448
    O   O11   0.516620  0.103710  0.692320  -0.664898
    O   O12   0.550980  0.471300  0.689120  -0.688989
    O   O13   0.627360  0.407830  0.710500  -0.656281
    O   O14   0.618140  0.242290  0.654940  -1.074908
    O   O15   0.684730  0.165230  0.697830  -0.674484
    O   O16   0.680760  0.414560  0.658420  -0.673376
    O   O17   0.713690  0.298030  0.704040  -0.666777
    O   O18   0.558860  0.407330  0.640320  -0.606906
    O   O19   0.190080  0.021660  0.808310  -0.760448
    O   O20   0.119510  0.105660  0.794970  -0.685282
    O   O21   0.136370  0.021230  0.752300  -0.798037
    O   O22   0.142000  0.905420  0.769910  -0.765088
    O   O23   0.000630  0.947730  0.802040  -1.152412
    O   O24   0.065770  0.798740  0.809000  -0.638026
    O   O25   0.014400  0.699030  0.417030  -0.725186
    O   O26   0.100890  0.648120  0.439120  -0.652859
    O   O27   0.246910  0.659220  0.373500  -1.177299
    O   O28   0.296170  0.531060  0.404640  -0.710988
    O   O29   0.082180  0.564550  0.393820  -0.762319
    O   O30   0.236840  0.597400  0.431190  -0.619257
    O   O31   0.060880  0.657040  0.367280  -0.733556
    O   O32   0.444760  0.698690  0.363310  -0.741436
    O   O33   0.380100  0.776570  0.343300  -0.618501
    O   O34   0.203800  0.756490  0.401490  -1.095734
    O   O35   0.127230  0.813140  0.357230  -0.581213
    O   O36   0.383600  0.818070  0.395560  -0.716117
    O   O37   0.267380  0.861600  0.352410  -0.689032
    O   O38   0.377580  0.697510  0.413350  -0.675799
    O   O39   0.509160  0.992950  0.173130  -0.791461
    O   O40   0.401830  0.947260  0.200900  -0.734332
    O   O41   0.300170  0.776530  0.146890  -1.087435
    O   O42   0.137100  0.771510  0.174790  -0.700040
    O   O43   0.349740  0.947240  0.149450  -0.764739
    O   O44   0.244180  0.835040  0.199230  -0.688041
    O   O45   0.448670  0.911780  0.128040  -0.793989
    O   O46   0.186740  0.596450  0.144860  -0.752828
    O   O47   0.314410  0.628710  0.125870  -0.700316
    O   O48   0.423440  0.807220  0.176280  -1.151739
    O   O49   0.569720  0.836990  0.136210  -0.689625
    O   O50   0.341430  0.630910  0.179720  -0.610146
    O   O51   0.475540  0.714230  0.133690  -0.586504
    O   O52   0.232920  0.670380  0.192930  -0.629113
    O   O53   0.740100  0.049700  0.316910  -0.768375
    O   O54   0.766590  0.154570  0.273550  -0.727203
    O   O55   0.158670  0.261870  0.241460  -0.716271
    O   O56   0.118690  0.322290  0.274240  -0.545143
    O   O57   0.101810  0.175460  0.304430  -0.749861
    O   O58   0.116570  0.106480  0.269840  -0.668999
    O   O59   0.784010  0.227270  0.855720  -0.706855
    O   O60   0.809290  0.974100  0.296520  -0.697245
    O   O61   0.988720  0.099050  0.762430  -0.667753
    O   O62   0.849080  0.387260  0.861250  -0.705459
    O   O63   0.969900  0.910150  0.756730  -1.218028
    O   O64   0.942370  0.043840  0.725410  -0.744724
    O   O65   0.784890  0.836250  0.740100  -0.758254
    O   O66   0.830790  0.759640  0.767410  -0.602643
    O   O67   0.818340  0.889740  0.798870  -0.706673
    O   O68   0.924790  0.769480  0.809110  -0.620608
    O   O69   0.831750  0.984180  0.767720  -0.620680
    O   O70   0.974050  0.180140  0.259880  -1.249903
    O   O71   0.009190  0.055330  0.228130  -0.737943
    O   O72   0.814080  0.069530  0.251710  -0.721919
    O   O73   0.956170  0.991440  0.265360  -0.747881
    O   O74   0.921940  0.131150  0.304130  -1.114629
    O   O75   0.861180  0.274770  0.305730  -0.650257
    O   O76   0.000270  0.306150  0.311840  -0.636056
    O   O77   0.832870  0.479780  0.887400  -0.708707
    O   O78   0.622860  0.517830  0.900790  -0.734740
    O   O79   0.710150  0.289420  0.901110  -1.051872
    O   O80   0.530950  0.230710  0.900830  -0.676579
    O   O81   0.899730  0.345360  0.910840  -0.667951
    O   O82   0.538170  0.352810  0.915420  -0.624667
    O   O83   0.681580  0.452450  0.928140  -0.617449
    O   O84   0.816080  0.397760  0.934250  -0.698448
    Zn  Zn1   0.571170  0.422870  0.880440  1.303295
    Zn  Zn2   0.619110  0.270180  0.874780  1.418718
    Zn  Zn3   0.500890  0.214800  0.649670  1.411266
    Zn  Zn4   0.477520  0.375340  0.673500  1.252146
    Zn  Zn5   0.631960  0.325670  0.682770  1.378213
    Zn  Zn6   0.624050  0.138120  0.666560  1.195480
    Zn  Zn7   0.039610  0.017890  0.772870  1.441577
    Zn  Zn8   0.101100  0.918280  0.808210  1.215500
    Zn  Zn9   0.177150  0.643160  0.407860  1.407711
    Zn  Zn10  0.344640  0.625010  0.380790  1.292995
    Zn  Zn11  0.293320  0.775970  0.372500  1.409517
    Zn  Zn12  0.095960  0.760240  0.390650  1.175994
    Zn  Zn13  0.338520  0.861010  0.174950  1.470253
    Zn  Zn14  0.191520  0.702050  0.157280  1.218124
    Zn  Zn15  0.374430  0.713010  0.152400  1.344882
    Zn  Zn16  0.516990  0.892770  0.159900  1.238647
    Zn  Zn17  0.064920  0.163250  0.240250  1.241010
    Zn  Zn18  0.883230  0.932540  0.737430  1.216748
    Zn  Zn19  0.910590  0.854130  0.787030  1.367696
    Zn  Zn20  0.898490  0.068160  0.275050  1.411144
    Zn  Zn21  0.022290  0.224890  0.291010  1.352333
    Zn  Zn22  0.820430  0.156170  0.310610  1.266005
    Zn  Zn23  0.815950  0.284160  0.887370  1.212577
    Zn  Zn24  0.738180  0.402970  0.904720  1.420856
