# Generated by REPEAT Assigner based on pymatgen
data_DB7-ddmof_1278
_audit_creation_date              2022-05-24
_audit_creation_method            REPEAT_Assigner
_cell_length_a                    18.550510
_cell_length_b                    15.916120
_cell_length_c                    41.433810
_cell_angle_alpha                 90.925640
_cell_angle_beta                  91.310020
_cell_angle_gamma                 111.040250
_cell_volume                      11410.924089
_symmetry_space_group_name_H-M    P1
_symmetry_Int_Tables_number       1
loop_
    _symmetry_equiv_pos_site_id
    _symmetry_equiv_pos_as_xyz
    1  x,y,z
loop_
    _atom_site_type_symbol
    _atom_site_label
    _atom_site_fract_x
    _atom_site_fract_y
    _atom_site_fract_z
    _atom_type_partial_charge
    Ni  Ni1   0.718340  0.327950  0.886090  1.138691
    O   O1    0.628690  0.248410  0.856910  -1.000922
    Ni  Ni2   0.538810  0.253450  0.880830  1.214452
    O   O2    0.795780  0.308200  0.855290  -0.423060
    O   O3    0.739520  0.154310  0.858200  -0.567924
    O   O4    0.712180  0.427850  0.857110  -0.597580
    Ni  Ni3   0.619530  0.123660  0.852850  0.998200
    O   O5    0.735220  0.440390  0.954780  -0.738304
    O   O6    0.613760  0.103500  0.901450  -0.576240
    O   O7    0.457680  0.184940  0.847100  -0.650042
    O   O8    0.627630  0.317010  0.913140  -0.934669
    O   O9    0.808680  0.417300  0.913470  -0.749547
    O   O10   0.458800  0.291610  0.904440  -0.467010
    O   O11   0.541550  0.436570  0.904620  -0.744113
    Ni  Ni4   0.640370  0.437850  0.929190  1.086666
    H   H1    0.628950  0.273550  0.835200  0.399898
    H   H2    0.627440  0.278480  0.931660  0.387902
    C   C1    0.551770  0.097070  0.917330  0.852307
    O   O12   0.710810  0.526140  0.897690  -0.605651
    C   C2    0.793800  0.227020  0.847180  0.607513
    C   C3    0.450090  0.102750  0.837210  0.664871
    C   C4    0.717660  0.508570  0.867070  0.895447
    C   C5    0.474430  0.376920  0.912000  0.616582
    C   C6    0.802720  0.456370  0.941390  0.948721
    O   O13   0.505450  0.138150  0.907470  -0.596367
    O   O14   0.500260  0.064500  0.846760  -0.615456
    Ni  Ni5   0.602510  0.328200  0.566740  1.160645
    O   O15   0.689950  0.346730  0.535100  -0.840947
    Ni  Ni6   0.763200  0.304480  0.560520  1.088387
    O   O16   0.555270  0.410230  0.543490  -0.542923
    O   O17   0.673510  0.519570  0.542340  -0.760323
    O   O18   0.531200  0.221770  0.538090  -0.488479
    Ni  Ni7   0.744810  0.466350  0.518690  1.064484
    O   O19   0.502400  0.149120  0.596350  -0.543038
    O   O20   0.835760  0.530920  0.550600  -0.451736
    O   O21   0.859060  0.342970  0.531810  -0.635924
    O   O22   0.670280  0.274470  0.590110  -1.005829
    O   O23   0.517900  0.298890  0.599670  -0.604238
    O   O24   0.815130  0.239960  0.590550  -0.510509
    O   O25   0.708690  0.110480  0.587650  -0.629184
    Ni  Ni8   0.611530  0.145520  0.592160  0.971226
    H   H3    0.670610  0.306230  0.516050  0.311088
    H   H4    0.684870  0.302030  0.612010  0.399008
    C   C7    0.858920  0.495550  0.575510  0.684671
    O   O26   0.598180  0.127080  0.543460  -0.550685
    C   C8    0.599940  0.489900  0.534050  0.743431
    C   C9    0.868170  0.396530  0.506770  0.857290
    C   C10   0.552340  0.156870  0.526500  0.748711
    C   C11   0.776950  0.158090  0.600580  0.786074
    C   C12   0.485560  0.215800  0.609850  0.697526
    O   O27   0.812530  0.420320  0.587660  -0.538273
    O   O28   0.809070  0.411400  0.493290  -0.714506
    Ni  Ni9   0.991230  0.947660  0.757080  1.154009
    O   O29   0.006460  0.856460  0.725970  -1.026638
    Ni  Ni10  0.063740  0.935900  0.691130  1.150234
    O   O30   0.932520  0.846680  0.787260  -0.523447
    O   O31   0.842450  0.780760  0.747340  -0.548754
    O   O32   0.092090  0.963710  0.783660  -0.548587
    Ni  Ni11  0.906410  0.780070  0.706700  1.037224
    O   O33   0.088280  0.141700  0.782450  -0.647478
    O   O34   0.875460  0.883850  0.690440  -0.629570
    O   O35   0.078070  0.834690  0.664080  -0.659571
    O   O36   0.037360  0.028290  0.719720  -1.008768
    O   O37   0.968150  0.035920  0.786690  -0.564732
    O   O38   0.143970  0.027100  0.663260  -0.555408
    O   O39   0.175270  0.159350  0.691860  -0.677834
    Ni  Ni12  0.124630  0.132010  0.736610  1.074385
    H   H5    0.035630  0.821280  0.735600  0.351653
    H   H6    0.998430  0.049880  0.709840  0.310313
    C   C13   0.911440  0.934510  0.666820  1.081355
    O   O40   0.180670  0.047380  0.747700  -0.748223
    C   C14   0.869380  0.781070  0.777010  0.649371
    C   C15   0.016580  0.760860  0.658130  0.918228
    C   C16   0.163440  0.995060  0.772760  1.091529
    C   C17   0.196630  0.101570  0.675230  0.949707
    C   C18   0.014620  0.119770  0.789200  0.852067
    O   O41   0.979190  0.935270  0.658250  -0.494404
    O   O42   0.946600  0.761910  0.662760  -0.707783
    Ni  Ni13  0.244010  0.684890  0.393030  1.103836
    O   O43   0.332720  0.744500  0.363060  -0.979290
    Ni  Ni14  0.422150  0.741910  0.389750  1.192740
    O   O44   0.167200  0.696340  0.358820  -0.452037
    O   O45   0.230730  0.849300  0.356640  -0.597289
    O   O46   0.241430  0.568850  0.370530  -0.642070
    Ni  Ni15  0.348660  0.868520  0.353750  0.995243
    O   O47   0.228520  0.607520  0.466660  -0.698192
    O   O48   0.361120  0.910480  0.401210  -0.580034
    O   O49   0.502340  0.789430  0.355660  -0.638447
    O   O50   0.335370  0.700600  0.422140  -0.865486
    O   O51   0.153970  0.614570  0.421790  -0.612719
    O   O52   0.498370  0.704510  0.417400  -0.524519
    O   O53   0.406270  0.565590  0.420900  -0.774090
    Ni  Ni16  0.316400  0.587000  0.443990  1.094231
    H   H7    0.328130  0.709340  0.342690  0.389205
    H   H8    0.340030  0.748290  0.438530  0.323066
    C   C19   0.422060  0.915760  0.419080  0.835642
    O   O54   0.235880  0.488460  0.416170  -0.590208
    C   C20   0.172520  0.774980  0.347370  0.661937
    C   C21   0.508510  0.863490  0.340070  0.778796
    C   C22   0.224610  0.491940  0.384940  1.015763
    C   C23   0.477310  0.621060  0.426990  0.671323
    C   C24   0.160580  0.592520  0.452230  0.707620
    O   O55   0.464540  0.868050  0.411440  -0.534536
    O   O56   0.467000  0.913350  0.348360  -0.638786
    Ni  Ni17  0.376380  0.683450  0.055570  1.140126
    O   O57   0.279120  0.670120  0.028210  -0.853083
    Ni  Ni18  0.216420  0.707970  0.060260  1.142883
    O   O58   0.409830  0.597440  0.027330  -0.555478
    O   O59   0.288420  0.492850  0.027630  -0.768218
    O   O60   0.441410  0.787180  0.027030  -0.472097
    Ni  Ni19  0.215680  0.553970  0.009000  1.067535
    O   O61   0.488590  0.859710  0.086460  -0.539351
    O   O62   0.132630  0.497730  0.042300  -0.561131
    O   O63   0.109620  0.669540  0.036470  -0.734845
    O   O64   0.320570  0.738850  0.084670  -0.983355
    O   O65   0.472200  0.709500  0.084680  -0.598803
    O   O66   0.178950  0.774320  0.095370  -0.399028
    O   O67   0.283270  0.902530  0.088040  -0.567633
    Ni  Ni20  0.380650  0.867320  0.087490  0.965485
    H   H9    0.292040  0.714300  0.010760  0.365078
    H   H10   0.315150  0.711960  0.106280  0.381003
    C   C25   0.141760  0.510990  0.073730  1.001729
    O   O68   0.378670  0.882840  0.039040  -0.630218
    C   C26   0.359720  0.518460  0.017820  0.747094
    C   C27   0.093360  0.630410  0.007250  0.927701
    C   C28   0.424530  0.858800  0.020570  0.790251
    C   C29   0.221390  0.858010  0.104140  0.600867
    C   C30   0.506970  0.791740  0.097210  0.707772
    O   O69   0.180540  0.591780  0.086350  -0.686203
    O   O70   0.146760  0.615210  0.990110  -0.772043
    Ni  Ni21  0.958990  0.041340  0.264640  1.090879
    O   O71   0.970070  0.135030  0.230530  -0.952689
    Ni  Ni22  0.929000  0.057480  0.191400  1.131160
    O   O72   0.004030  0.141960  0.298840  -0.396418
    O   O73   0.114590  0.199610  0.270540  -0.652325
    O   O74   0.848850  0.036470  0.274700  -0.609789
    Ni  Ni23  0.078230  0.205150  0.222880  1.032933
    O   O75   0.864310  0.826090  0.276860  -0.699487
    O   O76   0.109730  0.097000  0.212000  -0.569664
    O   O77   0.935470  0.161120  0.161610  -0.620186
    O   O78   0.934370  0.961910  0.224010  -0.945013
    O   O79   0.953310  0.952200  0.299550  -0.656859
    O   O80   0.859260  0.969860  0.156790  -0.590497
    O   O81   0.814620  0.835020  0.181100  -0.720658
    Ni  Ni24  0.845040  0.850440  0.229830  1.120444
    H   H11   0.939950  0.173900  0.235120  0.382946
    H   H12   0.979100  0.943670  0.220210  0.248769
    C   C31   0.086200  0.050100  0.184910  1.008786
    O   O82   0.776290  0.921510  0.240050  -0.804975
    C   C32   0.072880  0.203690  0.295440  0.650488
    C   C33   0.001600  0.231130  0.160750  0.820535
    C   C34   0.784050  0.967970  0.267330  1.080604
    C   C35   0.801200  0.897600  0.164600  1.041070
    C   C36   0.931020  0.866570  0.292200  0.947054
    O   O83   0.024330  0.050790  0.169220  -0.491574
    O   O84   0.065160  0.227500  0.174990  -0.720242
    C   C37   0.079830  0.347030  0.085270  0.267237
    C   C38   0.096140  0.437470  0.094840  -0.503154
    C   C39   0.064650  0.456530  0.123430  0.453600
    C   C40   0.023200  0.386350  0.143450  -0.069615
    C   C41   0.012340  0.296630  0.135030  -0.126687
    C   C42   0.036580  0.277200  0.104890  0.204753
    F   F1    0.024840  0.190620  0.096080  -0.110812
    F   F2    0.108860  0.326820  0.057640  -0.173956
    F   F3    0.997810  0.405970  0.172050  -0.134061
    F   F4    0.074150  0.542720  0.131880  -0.125723
    C   C43   0.632970  0.771380  0.108370  0.304885
    C   C44   0.580140  0.813270  0.116060  -0.357774
    C   C45   0.601720  0.884570  0.139090  0.285474
    C   C46   0.675790  0.915490  0.153440  0.244182
    C   C47   0.727940  0.873070  0.146080  -0.411735
    C   C48   0.706300  0.800770  0.123550  0.164487
    F   F5    0.756730  0.759700  0.116090  -0.113133
    F   F6    0.614290  0.704270  0.085530  -0.134569
    F   F7    0.696690  0.986220  0.174860  -0.179873
    F   F8    0.550880  0.924350  0.147370  -0.213676
    C   C49   0.159760  0.873240  0.155750  0.265520
    C   C50   0.189840  0.908930  0.126060  -0.311362
    C   C51   0.195800  0.997020  0.118540  0.249772
    C   C52   0.170500  0.047860  0.140120  0.188474
    C   C53   0.136020  0.010300  0.168830  -0.470099
    C   C54   0.133050  0.923920  0.177100  0.201169
    F   F9    0.101190  0.887630  0.205150  -0.138443
    F   F10   0.156490  0.789700  0.163920  -0.153894
    F   F11   0.174480  0.131810  0.132120  -0.104998
    F   F12   0.223610  0.032160  0.089750  -0.111818
    C   C55   0.719130  0.956820  0.320020  0.103902
    C   C56   0.714510  0.956780  0.286120  -0.385190
    C   C57   0.641970  0.937220  0.270350  0.204458
    C   C58   0.574560  0.911660  0.288210  0.169886
    C   C59   0.579050  0.906020  0.321880  -0.219822
    C   C60   0.651730  0.931850  0.337800  0.306592
    F   F13   0.656800  0.929730  0.370510  -0.143552
    F   F14   0.788610  0.976550  0.335660  -0.090767
    F   F15   0.504710  0.889210  0.272660  -0.194476
    F   F16   0.636730  0.941910  0.237750  -0.067472
    C   C61   0.104580  0.389470  0.357560  0.207181
    C   C62   0.182340  0.409050  0.366610  -0.329748
    C   C63   0.221530  0.354730  0.354930  -0.002802
    C   C64   0.184610  0.284570  0.332710  0.394817
    C   C65   0.108240  0.268620  0.322000  -0.367701
    C   C66   0.067580  0.319420  0.335340  0.253993
    F   F17   0.993380  0.303670  0.325590  -0.164347
    F   F18   0.065780  0.440530  0.369450  -0.134890
    F   F19   0.223180  0.232700  0.321300  -0.145851
    F   F20   0.296270  0.372070  0.364230  -0.080786
    C   C67   0.083570  0.767300  0.300510  0.361834
    C   C68   0.102000  0.783750  0.333600  -0.358928
    C   C69   0.051410  0.805960  0.353770  0.221208
    C   C70   0.986810  0.820060  0.340490  0.223152
    C   C71   0.973240  0.813850  0.306870  -0.297889
    C   C72   0.018810  0.781410  0.287230  0.053662
    F   F21   0.004070  0.770830  0.254870  -0.128147
    F   F22   0.129850  0.740880  0.281060  -0.187035
    F   F23   0.940660  0.846560  0.359990  -0.129119
    F   F24   0.066130  0.816420  0.386140  -0.099573
    C   C73   0.516550  0.109080  0.496190  -0.201301
    C   C74   0.437010  0.058570  0.494800  -0.149736
    C   C75   0.404520  0.996450  0.469300  0.213786
    C   C76   0.451600  0.987470  0.444170  -0.193470
    C   C77   0.529840  0.042960  0.444420  -0.161194
    C   C78   0.562810  0.102380  0.470420  0.230007
    S   S1    0.306450  0.926300  0.470390  -0.296581
    S   S2    0.662420  0.166550  0.470680  -0.262720
    H   H13   0.702360  0.120870  0.486310  0.176500
    H   H14   0.262200  0.965700  0.454160  0.201101
    H   H15   0.401250  0.063720  0.514520  0.134559
    H   H16   0.565780  0.037740  0.424770  0.142736
    C   C79   0.090180  0.545700  0.469730  0.006641
    C   C80   0.071850  0.454690  0.476980  -0.198331
    C   C81   0.999920  0.404860  0.489490  0.235998
    C   C82   0.946280  0.447210  0.495490  -0.224374
    C   C83   0.965740  0.538850  0.488870  -0.009035
    C   C84   0.037440  0.588320  0.476400  0.130652
    S   S3    0.975870  0.288570  0.495040  -0.214280
    S   S4    0.061020  0.704040  0.469720  -0.208875
    H   H17   0.097040  0.752410  0.496930  0.150149
    H   H18   0.940580  0.242300  0.467370  0.138265
    H   H19   0.112350  0.421720  0.471650  0.085938
    H   H20   0.924520  0.571510  0.493170  0.023892
    C   C85   0.524430  0.597050  0.451510  -0.098612
    C   C86   0.546250  0.649080  0.480230  -0.187355
    C   C87   0.571290  0.614940  0.507440  0.192021
    C   C88   0.575160  0.528210  0.505850  -0.044140
    C   C89   0.558820  0.479120  0.476490  -0.350366
    C   C90   0.534430  0.513510  0.449270  0.318113
    S   S5    0.594450  0.679760  0.543640  -0.253363
    S   S6    0.517540  0.452030  0.412380  -0.256852
    H   H21   0.441870  0.395120  0.410100  0.180805
    H   H22   0.671680  0.731130  0.544710  0.186496
    H   H23   0.539620  0.713970  0.481940  0.087929
    H   H24   0.565200  0.414070  0.474850  0.114180
    C   C91   0.881830  0.999830  0.616260  0.239882
    C   C92   0.876370  0.991640  0.649930  -0.623755
    C   C93   0.843250  0.044110  0.667550  0.469607
    C   C94   0.814710  0.102960  0.651530  0.118777
    C   C95   0.819390  0.110100  0.617870  -0.322395
    C   C96   0.853940  0.059220  0.600380  0.265570
    F   F25   0.858160  0.065290  0.567770  -0.121728
    F   F26   0.912850  0.948820  0.598880  -0.141294
    F   F27   0.781110  0.151790  0.668610  -0.152919
    F   F28   0.839860  0.039160  0.700200  -0.224402
    C   C97   0.324540  0.090090  0.664970  0.227290
    C   C98   0.272480  0.134760  0.660090  -0.427687
    C   C99   0.292180  0.209430  0.640000  0.219251
    C   C100  0.362720  0.237980  0.624330  0.255660
    C   C101  0.414840  0.192690  0.628990  -0.283467
    C   C102  0.395830  0.119700  0.649940  0.244467
    F   F29   0.446270  0.076940  0.655500  -0.209341
    F   F30   0.305720  0.017380  0.684090  -0.125344
    F   F31   0.378850  0.307190  0.603630  -0.130560
    F   F32   0.241750  0.252350  0.634720  -0.124902
    C   C103  0.977920  0.635480  0.582360  0.199528
    C   C104  0.929000  0.552860  0.594550  -0.283968
    C   C105  0.941920  0.532350  0.626630  0.273569
    C   C106  0.990170  0.600300  0.647590  0.071983
    C   C107  0.022180  0.689080  0.636950  -0.272570
    C   C108  0.025390  0.703030  0.603610  0.277132
    F   F33   0.065000  0.786070  0.592340  -0.120676
    F   F34   0.976210  0.652260  0.550430  -0.183075
    F   F35   0.995830  0.583050  0.679340  -0.145812
    F   F36   0.905470  0.448480  0.637880  -0.112548
    C   C109  0.873770  0.511450  0.959530  -0.099819
    C   C110  0.881620  0.496290  0.992450  -0.242110
    C   C111  0.951160  0.541730  0.009500  0.197914
    C   C112  0.014160  0.602910  0.993410  -0.034790
    C   C113  0.003800  0.623840  0.961290  -0.281419
    C   C114  0.934230  0.578590  0.944270  0.284682
    S   S7    0.958830  0.519510  0.050680  -0.270811
    S   S8    0.923280  0.608120  0.904160  -0.259168
    H   H25   0.945520  0.554660  0.883420  0.148798
    H   H26   0.939550  0.580100  0.069100  0.179630
    H   H27   0.834350  0.447040  0.004590  0.116065
    H   H28   0.051160  0.672910  0.949130  0.121528
    C   C115  0.527680  0.033180  0.943620  -0.116215
    C   C116  0.543120  0.065310  0.975650  -0.282299
    C   C117  0.512140  0.008040  0.001120  0.305949
    C   C118  0.463990  0.917720  0.994480  -0.150212
    C   C119  0.451480  0.884550  0.962520  -0.231757
    C   C120  0.482810  0.941760  0.937060  0.287264
    S   S9    0.535740  0.049540  0.041150  -0.207609
    S   S10   0.464020  0.898640  0.897090  -0.256055
    H   H29   0.398790  0.909990  0.885050  0.147381
    H   H30   0.481660  0.083140  0.051600  0.126272
    H   H31   0.578350  0.135310  0.980740  0.095339
    H   H32   0.415750  0.814730  0.957400  0.078822
    C   C121  0.376480  0.473460  0.989350  -0.014725
    C   C122  0.385830  0.516280  0.959600  -0.396397
    C   C123  0.410850  0.480350  0.932970  0.362801
    C   C124  0.428170  0.401560  0.936190  -0.105049
    C   C125  0.412410  0.354670  0.965190  -0.184342
    C   C126  0.386840  0.390380  0.991790  0.193936
    S   S11   0.419150  0.533760  0.895610  -0.283526
    S   S12   0.370790  0.332180  0.028280  -0.257685
    H   H33   0.295000  0.275980  0.028990  0.190890
    H   H34   0.491930  0.597170  0.893600  0.192079
    H   H35   0.374940  0.578520  0.957380  0.128538
    H   H36   0.424070  0.292970  0.967590  0.083041
    C   C127  0.887760  0.247600  0.803140  0.312289
    C   C128  0.864310  0.218460  0.834290  -0.315806
    C   C129  0.909740  0.183290  0.853380  0.193641
    C   C130  0.972560  0.167490  0.840040  0.266014
    C   C131  0.987960  0.182730  0.807150  -0.347131
    C   C132  0.950180  0.230800  0.789750  0.121391
    F   F37   0.967840  0.251500  0.758550  -0.154458
    F   F38   0.847620  0.287670  0.785230  -0.165288
    F   F39   0.012560  0.127200  0.857930  -0.120569
    F   F40   0.891700  0.162010  0.884520  -0.119800
    C   C133  0.364820  0.008910  0.792670  0.044991
    C   C134  0.373390  0.044310  0.824330  0.020902
    C   C135  0.307130  0.037740  0.841520  0.137717
    C   C136  0.234650  0.009770  0.825600  0.293322
    C   C137  0.227850  0.986730  0.792480  -0.657688
    C   C138  0.291880  0.978520  0.776990  0.405159
    F   F41   0.284330  0.946740  0.746030  -0.166309
    F   F42   0.427680  0.009540  0.776390  -0.151436
    F   F43   0.172540  0.012680  0.841640  -0.119225
    F   F44   0.313910  0.064690  0.873070  -0.129720
    C   C139  0.786430  0.671870  0.855130  0.280804
    C   C140  0.743780  0.583210  0.844120  -0.365990
    C   C141  0.734130  0.563960  0.810690  0.234400
    C   C142  0.774660  0.628600  0.788870  0.235268
    C   C143  0.822350  0.715080  0.800020  -0.223903
    C   C144  0.825500  0.737420  0.833170  0.175310
    F   F45   0.865830  0.822720  0.844120  -0.116595
    F   F46   0.790910  0.694430  0.887040  -0.144098
    F   F47   0.769470  0.606170  0.756910  -0.211180
    F   F48   0.686480  0.481750  0.799360  -0.133385
