# Generated by REPEAT Assigner based on pymatgen
data_DB7-ddmof_20860
_audit_creation_date              2022-05-24
_audit_creation_method            REPEAT_Assigner
_cell_length_a                    36.226280
_cell_length_b                    31.263710
_cell_length_c                    18.994690
_cell_angle_alpha                 92.663120
_cell_angle_beta                  85.318420
_cell_angle_gamma                 124.181600
_cell_volume                      17737.301459
_symmetry_space_group_name_H-M    P1
_symmetry_Int_Tables_number       1
loop_
    _symmetry_equiv_pos_site_id
    _symmetry_equiv_pos_as_xyz
    1  x,y,z
loop_
    _atom_site_type_symbol
    _atom_site_label
    _atom_site_fract_x
    _atom_site_fract_y
    _atom_site_fract_z
    _atom_type_partial_charge
    C   C1    0.949270  0.083120  0.897950  0.110632
    C   C2    0.958520  0.071450  0.829370  -0.172176
    C   C3    0.981640  0.047760  0.818710  -0.151331
    C   C4    0.995380  0.034960  0.876300  0.164316
    C   C5    0.985910  0.046400  0.945320  -0.141281
    C   C6    0.962920  0.070380  0.955980  -0.200718
    N   N1    0.019000  0.010170  0.863840  -0.184783
    C   C7    0.140120  0.076580  0.966210  0.067908
    C   C8    0.101440  0.030300  0.991950  -0.167883
    C   C9    0.061190  0.008810  0.959780  -0.174991
    C   C10   0.059480  0.033040  0.900550  0.153425
    C   C11   0.097890  0.079960  0.876250  -0.133745
    C   C12   0.137960  0.101650  0.908830  -0.168446
    C   C13   0.936040  0.846460  0.842420  0.044681
    C   C14   0.974940  0.876040  0.797920  -0.054481
    C   C15   0.002450  0.929680  0.806200  -0.249923
    C   C16   0.991480  0.954360  0.858990  0.259822
    C   C17   0.953140  0.924450  0.904990  -0.178927
    C   C18   0.925540  0.870870  0.896420  -0.161455
    H   H1    0.947620  0.080600  0.784360  0.115488
    H   H2    0.988750  0.039110  0.765690  0.096294
    H   H3    0.995990  0.036320  0.990420  0.121295
    H   H4    0.955780  0.079120  0.009180  0.128870
    H   H5    0.102650  0.010760  0.036440  0.123359
    H   H6    0.031500  0.973650  0.981020  0.111552
    H   H7    0.096660  0.099470  0.831780  0.104511
    H   H8    0.167420  0.137790  0.889210  0.124003
    H   H9    0.983550  0.857580  0.756400  0.094788
    H   H10   0.032160  0.952190  0.771190  0.127960
    H   H11   0.945090  0.942430  0.947850  0.121748
    H   H12   0.896170  0.848250  0.932130  0.107729
    C   C19   0.949750  0.087320  0.514800  0.145146
    C   C20   0.950650  0.046210  0.483960  -0.208990
    C   C21   0.966900  0.022850  0.520400  -0.164553
    C   C22   0.982480  0.040540  0.588230  0.211042
    C   C23   0.982100  0.082060  0.618330  -0.206737
    C   C24   0.965560  0.105120  0.582140  -0.163043
    N   N2    0.999580  0.017230  0.626890  -0.203193
    C   C25   0.140550  0.090560  0.606100  0.102131
    C   C26   0.117010  0.073580  0.672200  -0.141399
    C   C27   0.070760  0.049420  0.678350  -0.192469
    C   C28   0.047400  0.041690  0.618690  0.188733
    C   C29   0.070990  0.058280  0.552050  -0.163439
    C   C30   0.117370  0.082720  0.545990  -0.207505
    C   C31   0.921430  0.852890  0.637420  0.081473
    C   C32   0.957330  0.878640  0.586360  -0.184274
    C   C33   0.982790  0.932540  0.581880  -0.158629
    C   C34   0.972580  0.961380  0.628630  0.238649
    C   C35   0.936240  0.935480  0.678800  -0.265894
    C   C36   0.910850  0.881560  0.683350  -0.058009
    H   H13   0.938840  0.032450  0.431760  0.135442
    H   H14   0.967880  0.991600  0.495710  0.116500
    H   H15   0.995040  0.096740  0.669610  0.135457
    H   H16   0.964880  0.136720  0.606510  0.127792
    H   H17   0.134580  0.078930  0.718770  0.114713
    H   H18   0.052980  0.036730  0.729500  0.106332
    H   H19   0.053470  0.051470  0.505050  0.126644
    H   H20   0.135270  0.095410  0.494610  0.132640
    H   H21   0.965320  0.856840  0.549860  0.109456
    H   H22   0.009910  0.951740  0.541570  0.115807
    H   H23   0.927910  0.957240  0.714640  0.131695
    H   H24   0.883350  0.862120  0.723150  0.112442
    Co  Co1   0.684500  0.302910  0.979070  1.296714
    O   O1    0.727400  0.288200  0.919360  -0.677117
    Co  Co2   0.598130  0.310940  0.025950  1.284406
    O   O2    0.620240  0.266570  0.952090  -0.671755
    O   O3    0.653290  0.381600  0.013600  -0.579477
    O   O4    0.682420  0.234440  0.998200  -0.542610
    C   C37   0.684040  0.396880  0.960410  0.685742
    O   O5    0.584890  0.297220  0.916100  -0.609560
    C   C38   0.521010  0.273600  0.093220  0.542570
    C   C39   0.670530  0.326040  0.112660  0.204723
    O   O6    0.552810  0.321940  0.085430  -0.660089
    O   O7    0.533400  0.245430  0.062680  -0.524413
    O   O8    0.707620  0.336440  0.080130  -0.543774
    O   O9    0.636520  0.294560  0.076040  -0.495360
    O   O10   0.697640  0.367240  0.933950  -0.752235
    C   C40   0.713130  0.244820  0.949190  0.483679
    C   C41   0.606230  0.275820  0.898130  0.528233
    H   H25   0.719250  0.379420  0.890540  0.476244
    Co  Co3   0.706770  0.303020  0.490240  1.237569
    O   O11   0.760160  0.310720  0.426440  -0.702966
    Co  Co4   0.614210  0.298060  0.543060  1.258552
    O   O12   0.652440  0.290530  0.443770  -0.357194
    O   O13   0.666710  0.358890  0.585330  -0.596899
    O   O14   0.702650  0.235750  0.448230  -0.551747
    C   C42   0.704650  0.392050  0.549280  0.790485
    O   O15   0.623000  0.333660  0.443650  -0.496262
    C   C43   0.529700  0.241740  0.577460  0.405621
    C   C44   0.664750  0.265870  0.618040  0.495113
    O   O16   0.558740  0.284760  0.606870  -0.611313
    O   O17   0.548390  0.230710  0.525820  -0.486887
    O   O18   0.706410  0.285410  0.598460  -0.583245
    O   O19   0.641840  0.259280  0.564970  -0.675375
    O   O20   0.727030  0.376760  0.508380  -0.692282
    C   C45   0.741710  0.261890  0.415430  0.563364
    C   C46   0.649690  0.323370  0.409510  -0.084765
    H   H26   0.756300  0.403820  0.482470  0.456480
    C   C47   0.650190  0.269720  0.690850  0.636231
    N   N3    0.672520  0.270450  0.745390  -0.386377
    N   N4    0.658570  0.272580  0.811790  -0.196063
    C   C48   0.622450  0.275070  0.825320  0.624914
    N   N5    0.600400  0.274840  0.770760  -0.385986
    N   N6    0.613840  0.271710  0.704450  -0.114429
    C   C49   0.665850  0.327200  0.189880  0.900600
    N   N7    0.630930  0.326500  0.223200  -0.432057
    N   N8    0.626440  0.326730  0.293570  -0.255796
    C   C50   0.656330  0.326800  0.332430  0.971166
    N   N9    0.691170  0.327390  0.299080  -0.421506
    N   N10   0.696140  0.328150  0.228780  -0.308696
    C   C51   0.767370  0.553260  0.594330  0.664433
    C   C52   0.723680  0.523500  0.572370  -0.373076
    C   C53   0.703140  0.470810  0.558020  0.034551
    C   C54   0.726390  0.447580  0.564720  -0.283993
    C   C55   0.769860  0.477080  0.587970  0.009894
    C   C56   0.790420  0.529760  0.602280  -0.329120
    H   H27   0.705850  0.541390  0.565610  0.171517
    H   H28   0.669410  0.448220  0.540720  0.121474
    H   H29   0.787760  0.459240  0.594740  0.118509
    H   H30   0.824410  0.552410  0.618360  0.113518
    N   N11   0.789170  0.607510  0.602110  -0.434524
    N   N12   0.820600  0.632710  0.641580  -0.139204
    C   C57   0.894790  0.795890  0.642390  -0.055448
    C   C58   0.915950  0.770330  0.650890  0.142657
    C   C59   0.891080  0.716330  0.651940  -0.478386
    C   C60   0.845030  0.687410  0.643860  0.568470
    C   C61   0.823500  0.712880  0.637890  -0.255664
    C   C62   0.848340  0.766890  0.636730  -0.132727
    H   H31   0.951660  0.792300  0.656440  0.075760
    H   H32   0.907670  0.696910  0.658220  0.146208
    H   H33   0.787670  0.690850  0.633780  0.153866
    H   H34   0.831590  0.786170  0.630610  0.112452
    C   C63   0.813270  0.190040  0.394710  0.406965
    C   C64   0.768960  0.163100  0.375980  -0.292721
    C   C65   0.746450  0.187680  0.378200  -0.125356
    C   C66   0.768020  0.239500  0.399660  0.118257
    C   C67   0.813360  0.267540  0.414030  -0.134413
    C   C68   0.835810  0.242850  0.412110  -0.236171
    H   H35   0.751410  0.122470  0.362380  0.146048
    H   H36   0.711690  0.165870  0.365840  0.146144
    H   H37   0.830600  0.307710  0.430020  0.158650
    H   H38   0.870030  0.264130  0.427050  0.128646
    N   N13   0.832590  0.162230  0.405440  -0.182259
    N   N14   0.873950  0.183800  0.399070  -0.332379
    C   C69   0.931360  0.111050  0.477420  -0.065992
    C   C70   0.957740  0.164290  0.463010  -0.003997
    C   C71   0.938910  0.187810  0.434670  -0.370412
    C   C72   0.893650  0.158460  0.420620  0.556713
    C   C73   0.867820  0.104570  0.431350  -0.248964
    C   C74   0.886570  0.081120  0.460080  -0.076752
    H   H39   0.992550  0.187600  0.475170  0.099875
    H   H40   0.959180  0.229140  0.425510  0.148014
    H   H41   0.833140  0.081080  0.418670  0.105074
    H   H42   0.866020  0.039920  0.470420  0.117766
    C   C75   0.389070  0.176300  0.593530  0.532932
    C   C76   0.405750  0.150100  0.556860  -0.298079
    C   C77   0.451610  0.171310  0.552040  -0.130982
    C   C78   0.481230  0.218870  0.584510  0.162400
    C   C79   0.464320  0.244420  0.623210  -0.129506
    C   C80   0.418410  0.223190  0.627760  -0.333926
    H   H43   0.383170  0.113480  0.531490  0.141691
    H   H44   0.464100  0.150760  0.523070  0.139719
    H   H45   0.486670  0.280780  0.649350  0.170200
    H   H46   0.405630  0.243010  0.657920  0.163630
    N   N15   0.342530  0.154360  0.597700  -0.291489
    N   N16   0.328160  0.182270  0.594940  -0.267684
    C   C81   0.189330  0.115670  0.599790  0.029420
    C   C82   0.217460  0.162520  0.634870  -0.066086
    C   C83   0.263480  0.184670  0.632580  -0.328988
    C   C84   0.281620  0.159960  0.595940  0.525785
    C   C85   0.253660  0.113830  0.559110  -0.343621
    C   C86   0.207670  0.091680  0.561330  -0.098416
    H   H47   0.203610  0.181480  0.664330  0.109536
    H   H48   0.284970  0.220660  0.660110  0.145436
    H   H49   0.267560  0.095160  0.529060  0.176769
    H   H50   0.186230  0.055580  0.533950  0.118331
    C   C87   0.849020  0.681520  0.832090  0.467316
    C   C88   0.895030  0.705440  0.836440  -0.204779
    C   C89   0.923750  0.759380  0.837650  -0.061049
    C   C90   0.906660  0.789800  0.833420  0.000147
    C   C91   0.860940  0.765790  0.824510  -0.040631
    C   C92   0.832230  0.711870  0.823780  -0.309570
    H   H51   0.908280  0.682220  0.841500  0.117876
    H   H52   0.959040  0.777470  0.843750  0.089866
    H   H53   0.847590  0.788900  0.819160  0.101635
    H   H54   0.796940  0.693690  0.817670  0.168014
    N   N17   0.819620  0.627200  0.840390  -0.377930
    N   N18   0.783210  0.608020  0.875720  -0.184750
    C   C93   0.708860  0.451440  0.937760  -0.046270
    C   C94   0.717910  0.464320  0.865610  -0.210742
    C   C95   0.742710  0.516240  0.844820  -0.216194
    C   C96   0.758030  0.555460  0.896000  0.430086
    C   C97   0.747680  0.542530  0.967720  -0.290853
    C   C98   0.723480  0.490820  0.988630  -0.003265
    H   H55   0.705620  0.434230  0.825780  0.143680
    H   H56   0.749860  0.525980  0.789180  0.188568
    H   H57   0.759010  0.572700  0.007320  0.157063
    H   H58   0.716540  0.481380  0.044380  0.122186
    C   C99   0.792730  0.182970  0.952970  0.525730
    C   C100  0.750170  0.157410  0.988100  -0.365501
    C   C101  0.723900  0.177100  0.985890  -0.077150
    C   C102  0.740210  0.223010  0.948980  0.119550
    C   C103  0.782800  0.248490  0.913250  -0.122097
    C   C104  0.809110  0.228870  0.915720  -0.253230
    H   H59   0.737450  0.122210  0.017150  0.154981
    H   H60   0.690950  0.156780  0.013150  0.144624
    H   H61   0.795810  0.283850  0.884390  0.160653
    H   H62   0.842290  0.249550  0.889330  0.115305
    N   N19   0.819360  0.163100  0.957280  -0.284113
    N   N20   0.849910  0.173760  0.911230  -0.275706
    C   C105  0.925180  0.108530  0.908690  0.016046
    C   C106  0.944590  0.158580  0.882520  -0.041891
    C   C107  0.919870  0.180500  0.885230  -0.371384
    C   C108  0.875760  0.152870  0.914590  0.531358
    C   C109  0.856550  0.103080  0.942120  -0.273974
    C   C110  0.881290  0.081160  0.939450  -0.124190
    H   H63   0.978460  0.179980  0.858640  0.104361
    H   H64   0.934760  0.218700  0.863500  0.165230
    H   H65   0.822210  0.080950  0.963860  0.148966
    H   H66   0.865930  0.042350  0.959340  0.120735
    C   C111  0.265570  0.141410  0.057570  0.503003
    C   C112  0.227870  0.130470  0.100330  -0.311963
    C   C113  0.186880  0.109340  0.070650  -0.111469
    C   C114  0.183180  0.098140  0.998050  0.062023
    C   C115  0.220810  0.108090  0.955600  -0.071746
    C   C116  0.261820  0.129720  0.985230  -0.400175
    H   H67   0.230470  0.138870  0.156360  0.170902
    H   H68   0.158120  0.101960  0.103900  0.115087
    H   H69   0.218240  0.098990  0.899730  0.109804
    H   H70   0.290650  0.137160  0.952150  0.221082
    N   N21   0.306900  0.162500  0.087800  -0.308429
    N   N22   0.341160  0.203190  0.063730  -0.241391
    C   C117  0.473430  0.255590  0.100120  0.071524
    C   C118  0.439840  0.202360  0.101720  -0.145450
    C   C119  0.395380  0.184770  0.093840  -0.262942
    C   C120  0.383940  0.220290  0.085390  0.526027
    C   C121  0.416920  0.273380  0.088700  -0.382785
    C   C122  0.461410  0.291050  0.096690  -0.060328
    H   H71   0.448440  0.174560  0.106030  0.139766
    H   H72   0.370200  0.143620  0.091180  0.158027
    H   H73   0.408340  0.301000  0.082460  0.163358
    H   H74   0.486730  0.332250  0.097010  0.158017
