# Generated by REPEAT Assigner based on pymatgen
data_DB7-ddmof_5307
_audit_creation_date              2022-05-24
_audit_creation_method            REPEAT_Assigner
_cell_length_a                    20.669400
_cell_length_b                    21.619000
_cell_length_c                    44.437070
_cell_angle_alpha                 60.606730
_cell_angle_beta                  119.143240
_cell_angle_gamma                 133.341140
_cell_volume                      12224.131140
_symmetry_space_group_name_H-M    P1
_symmetry_Int_Tables_number       1
loop_
    _symmetry_equiv_pos_site_id
    _symmetry_equiv_pos_as_xyz
    1  x,y,z
loop_
    _atom_site_type_symbol
    _atom_site_label
    _atom_site_fract_x
    _atom_site_fract_y
    _atom_site_fract_z
    _atom_type_partial_charge
    C   C1    0.700370  0.271290  0.027390  0.171542
    C   C2    0.652920  0.364200  0.028950  -0.226249
    C   C3    0.584600  0.284440  0.019610  0.105758
    C   C4    0.608120  0.240970  0.016310  -0.209613
    H   H1    0.634500  0.400740  0.028880  0.121547
    H   H2    0.554720  0.181720  0.006780  0.124573
    C   C5    0.725070  0.282490  0.518820  0.062291
    C   C6    0.656130  0.352790  0.523120  -0.198694
    C   C7    0.596940  0.270200  0.516780  0.014404
    C   C8    0.630110  0.241230  0.509640  -0.094259
    H   H3    0.629200  0.379030  0.525250  0.117770
    H   H4    0.582340  0.181670  0.500510  0.102446
    C   C9    0.275840  0.665120  0.125520  0.240715
    C   C10   0.220450  0.604420  0.104670  -0.358049
    C   C11   0.259970  0.580080  0.098200  0.136036
    C   C12   0.355490  0.630500  0.105760  -0.201758
    C   C13   0.409260  0.681090  0.130610  0.231183
    C   C14   0.365690  0.689810  0.143280  -0.220752
    H   H5    0.147830  0.575070  0.094430  0.155570
    H   H6    0.386750  0.621890  0.095770  0.129703
    H   H7    0.401760  0.718390  0.165590  0.109239
    C   C15   0.280560  0.631850  0.647460  0.078071
    C   C16   0.373050  0.694680  0.644760  -0.141548
    C   C17   0.415410  0.671630  0.639410  0.062123
    C   C18   0.362440  0.592900  0.630620  -0.212474
    C   C19   0.274010  0.527810  0.635570  0.260058
    C   C20   0.234570  0.544930  0.646350  -0.229745
    H   H8    0.411110  0.761100  0.645920  0.117321
    H   H9    0.392630  0.579590  0.622380  0.127463
    H   H10   0.170000  0.491600  0.654010  0.159632
    Co  Co1   0.036720  0.024670  0.026390  1.266049
    Co  Co2   0.096120  0.914940  0.029180  1.270674
    C   C21   0.211040  0.110180  0.010660  0.951879
    O   O1    0.046230  0.078200  0.165960  -0.549376
    C   C22   0.040860  0.008320  0.189420  0.758854
    O   O2    0.007980  0.105440  0.018570  -0.518444
    C   C23   0.072990  0.233380  0.090700  0.869164
    C   C24   0.185820  0.886920  0.104300  0.913781
    O   O3    0.202410  0.944610  0.073580  -0.674179
    O   O4    0.128610  0.869080  0.118330  -0.598058
    O   O5    0.084030  0.200640  0.076410  -0.566861
    O   O6    0.048330  0.941270  0.050360  -0.732372
    O   O7    0.163940  0.042400  0.998280  -0.770153
    O   O8    0.172260  0.118000  0.023660  -0.584424
    Co  Co3   0.016910  0.078330  0.572300  1.306767
    Co  Co4   0.068130  0.009210  0.540190  1.262559
    Co  Co5   0.070060  0.863060  0.537050  1.263808
    C   C25   0.240690  0.036240  0.546260  0.949873
    O   O9    0.049340  0.062810  0.673150  -0.757974
    C   C26   0.038140  0.988640  0.694260  0.990729
    O   O10   0.073840  0.111670  0.535390  -0.544874
    C   C27   0.114050  0.220310  0.606080  1.095740
    C   C28   0.104080  0.776980  0.614230  0.971606
    O   O11   0.025200  0.934140  0.681930  -0.706385
    O   O12   0.062540  0.763480  0.582330  -0.828374
    O   O13   0.094200  0.819060  0.623710  -0.656312
    O   O14   0.031330  0.186990  0.604740  -0.841137
    O   O15   0.127710  0.180090  0.597460  -0.693166
    O   O16   0.037250  0.905220  0.557490  -0.707542
    O   O17   0.205750  0.952180  0.556970  -0.674265
    O   O18   0.207390  0.065710  0.550910  -0.697475
    C   C29   0.026870  0.051840  0.876660  -0.248413
    C   C30   0.080130  0.019690  0.780560  -0.206489
    C   C31   0.097420  0.030730  0.750630  -0.133848
    C   C32   0.035530  0.964800  0.731810  -0.103389
    H   H11   0.075600  0.116230  0.862700  0.167416
    H   H12   0.056630  0.100310  0.917540  0.135106
    H   H13   0.128580  0.071510  0.794410  0.150092
    H   H14   0.157150  0.092170  0.741240  0.165757
    C   C33   0.068350  0.050990  0.382450  -0.162473
    C   C34   0.077100  0.059280  0.414060  -0.060408
    C   C35   0.041080  0.985030  0.326100  -0.172515
    C   C36   0.029640  0.978270  0.291200  0.186743
    C   C37   0.076630  0.954100  0.289880  -0.148009
    C   C38   0.075790  0.958000  0.256930  -0.152251
    C   C39   0.027960  0.986060  0.224870  -0.010289
    H   H15   0.125420  0.098970  0.369880  0.133765
    H   H16   0.142450  0.110810  0.426270  0.106452
    H   H17   0.103770  0.998760  0.346490  0.167044
    H   H18   0.115540  0.934240  0.314250  0.123624
    H   H19   0.114870  0.942170  0.256450  0.156736
    C   C40   0.223590  0.442310  0.628570  0.024962
    C   C41   0.235520  0.377970  0.656180  -0.001912
    C   C42   0.224030  0.315110  0.647870  -0.084098
    C   C43   0.188140  0.308390  0.612570  -0.203502
    C   C44   0.189030  0.378980  0.585340  0.160028
    C   C45   0.195310  0.439280  0.592950  -0.139828
    C   C46   0.260590  0.377230  0.692940  0.322217
    C   C47   0.187560  0.391440  0.550000  0.264554
    C   C48   0.175650  0.500030  0.564250  0.353145
    C   C49   0.250980  0.258800  0.675340  0.426547
    N   N1    0.159920  0.548530  0.541360  -0.357283
    N   N2    0.273110  0.214110  0.697200  -0.383367
    N   N3    0.280500  0.376600  0.722300  -0.379397
    C   C50   0.697400  0.819260  0.641860  -0.133192
    C   C51   0.657030  0.863580  0.627820  0.074963
    C   C52   0.562860  0.814410  0.624120  -0.164182
    C   C53   0.516470  0.727470  0.644680  0.132454
    C   C54   0.564480  0.689140  0.666240  -0.004808
    C   C55   0.651260  0.731670  0.662010  -0.015479
    C   C56   0.713990  0.955950  0.626150  0.393453
    C   C57   0.526110  0.608150  0.693380  0.247542
    C   C58   0.513140  0.851070  0.597560  0.455315
    N   N4    0.472490  0.879390  0.576280  -0.421147
    N   N5    0.495560  0.543530  0.715060  -0.299373
    C   C59   0.231110  0.658460  0.649730  0.047694
    C   C60   0.280510  0.731270  0.663730  -0.085617
    C   C61   0.239390  0.772520  0.654630  -0.019444
    C   C62   0.143790  0.727590  0.640920  -0.133633
    C   C63   0.093380  0.640210  0.640630  0.120305
    C   C64   0.134870  0.615260  0.636150  -0.041084
    C   C65   0.362230  0.751560  0.692240  0.399895
    C   C66   0.014580  0.573890  0.655650  0.260700
    C   C67   0.083520  0.563210  0.610920  0.323171
    C   C68   0.294680  0.858870  0.659960  0.322101
    N   N6    0.042230  0.521710  0.590630  -0.390172
    N   N7    0.338980  0.927980  0.664250  -0.315126
    N   N8    0.427550  0.767760  0.715050  -0.405352
    C   C69   0.142170  0.326340  0.092790  -0.155934
    C   C70   0.176040  0.344970  0.125670  0.088918
    C   C71   0.200410  0.422840  0.126760  -0.145399
    C   C72   0.206170  0.489420  0.095260  0.167622
    C   C73   0.182070  0.474810  0.062480  -0.165086
    C   C74   0.152750  0.394190  0.061440  0.062787
    C   C75   0.191420  0.286770  0.158320  0.297844
    C   C76   0.187200  0.542390  0.029940  0.390007
    C   C77   0.141550  0.384080  0.028990  0.334613
    C   C78   0.221950  0.435590  0.160470  0.430726
    N   N9    0.133470  0.376450  0.003120  -0.352424
    N   N10   0.239200  0.445890  0.187330  -0.408147
    N   N11   0.191290  0.596390  0.003970  -0.389042
    N   N12   0.204810  0.241270  0.184600  -0.350157
    C   C79   0.510820  0.724570  0.142920  -0.072069
    C   C80   0.573630  0.815150  0.141780  0.115208
    C   C81   0.665310  0.861060  0.142050  -0.181872
    C   C82   0.694570  0.817530  0.141990  0.050188
    C   C83   0.634420  0.725280  0.147320  -0.083062
    C   C84   0.544810  0.678590  0.150220  0.068844
    C   C85   0.547370  0.859930  0.143900  0.308491
    C   C86   0.665560  0.677910  0.151440  0.361283
    C   C87   0.489430  0.583690  0.162550  0.254079
    N   N13   0.445180  0.507960  0.172380  -0.328160
    N   N14   0.690340  0.640040  0.154730  -0.343069
    N   N15   0.527720  0.896150  0.146120  -0.350272
    C   C88   0.250150  0.719630  0.121410  0.192656
    C   C89   0.302590  0.810310  0.105650  -0.041630
    C   C90   0.296680  0.865820  0.110340  0.040492
    C   C91   0.219300  0.831270  0.119530  -0.274578
    C   C92   0.163060  0.739410  0.134410  0.331127
    C   C93   0.180330  0.683930  0.136220  -0.316654
    C   C94   0.354980  0.844980  0.081660  0.261374
    C   C95   0.093120  0.702990  0.150300  0.193022
    C   C96   0.125700  0.590890  0.152680  0.396585
    C   C97   0.372540  0.957300  0.108010  0.283515
    N   N16   0.082030  0.516540  0.165800  -0.381768
    N   N17   0.433460  0.030410  0.106430  -0.279236
    N   N18   0.396530  0.872470  0.062400  -0.347038
    C   C98   0.652080  0.100630  0.560810  0.411587
    N   N19   0.605950  0.067740  0.579180  -0.380017
    C   C99   0.331270  0.098950  0.537990  -0.193915
    C   C100  0.410700  0.140730  0.563940  0.076059
    C   C101  0.497250  0.187600  0.558500  -0.134800
    C   C102  0.505400  0.208340  0.524400  0.211314
    C   C103  0.425930  0.171980  0.497630  -0.142929
    C   C104  0.340290  0.108060  0.506110  0.007106
    C   C105  0.403430  0.133370  0.596570  0.403050
    C   C106  0.432020  0.199600  0.461500  0.438120
    C   C107  0.268080  0.042360  0.485830  0.328023
    C   C108  0.576220  0.207980  0.588420  0.299950
    N   N20   0.212400  0.990260  0.469340  -0.375568
    N   N21   0.638980  0.223750  0.612410  -0.311861
    N   N22   0.436880  0.221650  0.432660  -0.420877
    N   N23   0.397670  0.127670  0.622580  -0.375820
    C   C109  0.619230  0.089190  0.068460  0.254960
    N   N24   0.574590  0.059840  0.086760  -0.243318
    C   C110  0.488490  0.242440  0.017080  0.179555
    C   C111  0.427500  0.242700  0.983490  -0.140374
    C   C112  0.339610  0.212580  0.980900  0.093590
    C   C113  0.309690  0.174770  0.011990  -0.292411
    C   C114  0.373080  0.181860  0.045220  0.078062
    C   C115  0.462570  0.216160  0.047780  -0.085594
    C   C116  0.455800  0.275480  0.951610  0.392208
    C   C117  0.345490  0.151710  0.076920  0.405120
    C   C118  0.528560  0.225950  0.081870  0.257619
    C   C119  0.281270  0.223530  0.946350  0.337139
    N   N25   0.580950  0.233570  0.109100  -0.302432
    N   N26   0.235350  0.232960  0.918660  -0.371002
    N   N27   0.323510  0.127590  0.102220  -0.392845
    N   N28   0.478450  0.301650  0.926190  -0.394349
    C   C120  0.744180  0.394980  0.040440  0.209732
    C   C121  0.694740  0.687240  0.679910  0.360571
    N   N29   0.606050  0.929680  0.536000  -0.388154
    N   N30   0.570220  0.904480  0.055820  -0.380945
    O   O19   0.018110  0.988500  0.080470  -0.904031
    O   O20   0.032990  0.786090  0.057830  -0.818326
    C   C122  0.028150  0.979190  0.471180  0.829674
    O   O21   0.084750  0.957880  0.489720  -0.688197
    O   O22   0.005570  0.999080  0.486770  -0.614708
    C   C123  0.004930  0.996500  0.431670  -0.065559
    N   N31   0.729520  0.651830  0.694220  -0.357431
    C   C124  0.710430  0.143090  0.537830  -0.098768
    C   C125  0.729380  0.095840  0.534650  0.112212
    C   C126  0.660720  0.003480  0.535550  0.331183
    C   C127  0.689660  0.074450  0.043080  -0.035290
    C   C128  0.675440  0.126600  0.045570  -0.022150
    C   C129  0.623320  0.979980  0.050260  0.385149
    O   O23   0.020410  0.947110  0.178610  -0.591727
    Co  Co6   0.013410  0.873250  0.088880  1.276922
    N   N32   0.187410  0.401930  0.521820  -0.326234
    C   C130  0.015350  0.043040  0.907700  -0.048426
    N   N33   0.037510  0.673830  0.163190  -0.289844
    H   H20   0.008080  0.050380  0.810270  0.134989
    C   C131  0.723730  0.217330  0.028700  0.075673
    C   C132  0.729930  0.951870  0.144320  0.438537
    C   C133  0.750420  0.398580  0.529930  0.141390
    C   C134  0.758470  0.234660  0.522570  0.100032
    C   C135  0.000830  0.942200  0.792450  0.298020
    N   N34   0.759790  0.029490  0.625470  -0.457149
    C   C136  0.768580  0.348090  0.040250  -0.255532
    N   N35   0.758190  0.703950  0.447880  -0.372556
    C   C137  0.768750  0.114380  0.033540  -0.042041
    N   N36   0.780660  0.024050  0.146290  -0.447668
    C   C138  0.782210  0.665560  0.473950  0.353712
    C   C139  0.785860  0.361890  0.529480  -0.171107
    O   O24   0.995590  0.188650  0.098820  -0.810071
    N   N37   0.789880  0.364110  0.136310  -0.366467
    C   C140  0.803690  0.420970  0.110870  0.373172
    Co  Co7   0.980530  0.080070  0.063090  1.264471
    H   H21   0.965720  0.866470  0.845570  0.172109
    C   C141  0.984120  0.928010  0.825550  -0.221456
    C   C142  0.821660  0.492420  0.079160  -0.156409
    N   N38   0.988920  0.776550  0.977790  -0.420472
    C   C143  0.986520  0.980610  0.367500  0.203189
    N   N39   0.823950  0.579220  0.129630  -0.316592
    N   N40   0.990780  0.304280  0.483490  -0.323121
    C   C144  0.834980  0.576330  0.107320  0.341663
    N   N41   0.927430  0.267350  0.979810  -0.300032
    C   C145  0.834560  0.431480  0.600780  0.478501
    N   N42   0.841900  0.381290  0.626340  -0.398923
    C   C146  0.848340  0.572470  0.079330  0.058300
    N   N43   0.798670  0.541130  0.625850  -0.287226
    H   H22   0.839510  0.371370  0.049700  0.115519
    H   H23   0.859020  0.393770  0.537780  0.126175
    Co  Co8   0.952940  0.927290  0.125540  1.275411
    C   C147  0.947450  0.736620  0.058560  0.926310
    Co  Co9   0.929600  0.059200  0.128080  1.280596
    O   O25   0.962580  0.023210  0.104620  -0.756912
    O   O26   0.960800  0.834090  0.128980  -0.501215
    C   C148  0.792200  0.867180  0.141990  0.768768
    C   C149  0.968740  0.945480  0.965720  0.750459
    O   O27   0.856130  0.931140  0.157900  -0.663372
    O   O28   0.814330  0.854830  0.123010  -0.639139
    O   O29   0.980490  0.884460  0.988490  -0.578396
    O   O30   0.963100  0.989110  0.976710  -0.662438
    C   C150  0.820210  0.074980  0.054450  0.757776
    O   O31   0.814070  0.031050  0.087420  -0.588397
    O   O32   0.858430  0.071720  0.038780  -0.632485
    O   O33   0.918660  0.762930  0.067760  -0.661878
    Co  Co10  0.989860  0.837310  0.592950  1.255098
    Co  Co11  0.953100  0.912330  0.629510  1.292493
    C   C151  0.881450  0.716320  0.542800  0.775107
    Co  Co12  0.945580  0.058460  0.629690  1.329710
    O   O34   0.972230  0.012240  0.608520  -0.763544
    O   O35   0.946120  0.809290  0.633500  -0.521200
    O   O36   0.982980  0.949520  0.577830  -0.903259
    C   C152  0.793860  0.869400  0.641580  0.854422
    O   O37   0.856940  0.934030  0.657040  -0.770865
    O   O38   0.816510  0.848160  0.626790  -0.596342
    C   C153  0.865010  0.098900  0.552660  0.792704
    O   O39   0.844860  0.045480  0.583560  -0.613536
    O   O40   0.921340  0.109400  0.540910  -0.593664
    O   O41   0.931350  0.783040  0.519790  -0.600764
    O   O42   0.883020  0.728290  0.570160  -0.555807
    C   C154  0.955000  0.959990  0.927050  -0.012119
    C   C155  0.900200  0.886820  0.913030  -0.102011
    C   C156  0.911020  0.895550  0.881850  -0.182803
    C   C157  0.977250  0.977690  0.864190  0.249073
    C   C158  0.989640  0.989040  0.830490  -0.187365
    C   C159  0.958490  0.885510  0.744780  0.013665
    C   C160  0.941640  0.874070  0.775020  -0.293826
    H   H24   0.852080  0.822310  0.927170  0.138236
    H   H25   0.867830  0.838420  0.871620  0.130681
    H   H26   0.909290  0.834270  0.730590  0.114078
    H   H27   0.881550  0.812880  0.784380  0.154122
    C   C161  0.920550  0.931440  0.414800  -0.100481
    C   C162  0.911500  0.923180  0.383110  -0.197993
    C   C163  0.974610  0.971990  0.333060  -0.161403
    C   C164  0.979140  0.007850  0.226410  -0.070767
    C   C165  0.980820  0.005000  0.259060  -0.165659
    H   H28   0.863500  0.883740  0.427330  0.148606
    H   H29   0.846580  0.870850  0.371190  0.154446
    H   H30   0.908350  0.949350  0.314270  0.123541
    H   H31   0.943210  0.031210  0.202080  0.059303
    H   H32   0.947220  0.027240  0.259050  0.155386
    N   N44   0.952470  0.520530  0.668480  -0.300936
    C   C166  0.814900  0.139430  0.529480  -0.179761
    C   C167  0.862350  0.230020  0.512710  0.106336
    C   C168  0.831610  0.277260  0.507800  -0.157493
    C   C169  0.934080  0.271420  0.496660  0.298061
    C   C170  0.871600  0.366790  0.486320  0.388485
    N   N45   0.903580  0.438300  0.469160  -0.357456
    C   C171  0.830830  0.626690  0.539640  -0.216116
    C   C172  0.811700  0.616940  0.506520  -0.027325
    C   C173  0.814770  0.555330  0.505290  -0.044386
    C   C174  0.810000  0.487150  0.535500  0.191022
    C   C175  0.825720  0.494240  0.568700  -0.307554
    C   C176  0.828280  0.559660  0.570350  0.288214
    C   C177  0.812220  0.549380  0.601280  0.191604
    C   C178  0.814050  0.556900  0.472150  0.357859
    N   N46   0.813440  0.558050  0.445700  -0.388149
    C   C179  0.789510  0.254420  0.011160  -0.086776
    C   C180  0.813150  0.203000  0.014230  0.046882
    C   C181  0.831050  0.343710  0.989480  0.311253
    C   C182  0.877010  0.238940  0.995250  0.293750
    N   N47   0.864600  0.415000  0.972110  -0.320539
    C   C183  0.886990  0.648200  0.051970  -0.153346
    C   C184  0.890920  0.639990  0.023060  -0.022788
    C   C185  0.848950  0.556820  0.020230  -0.100262
    C   C186  0.814120  0.482440  0.048260  0.150102
    C   C187  0.945230  0.716840  0.997980  0.397462
    C   C188  0.837320  0.547300  0.987450  0.362546
    N   N48   0.827780  0.540050  0.961180  -0.376576
