# Generated by REPEAT Assigner based on pymatgen
data_DB7-ddmof_23583
_audit_creation_date              2022-05-24
_audit_creation_method            REPEAT_Assigner
_cell_length_a                    45.367530
_cell_length_b                    44.707780
_cell_length_c                    34.882040
_cell_angle_alpha                 89.957990
_cell_angle_beta                  89.954390
_cell_angle_gamma                 90.488540
_cell_volume                      70747.984493
_symmetry_space_group_name_H-M    P1
_symmetry_Int_Tables_number       1
loop_
    _symmetry_equiv_pos_site_id
    _symmetry_equiv_pos_as_xyz
    1  x,y,z
loop_
    _atom_site_type_symbol
    _atom_site_label
    _atom_site_fract_x
    _atom_site_fract_y
    _atom_site_fract_z
    _atom_type_partial_charge
    C   C1    0.518850  0.561280  0.999130  0.882306
    C   C2    0.458640  0.530180  0.060760  0.553291
    C   C3    0.557610  0.493860  0.048760  0.746583
    C   C4    0.491260  0.446980  0.988240  0.822300
    C   C5    0.393420  0.137150  0.072150  0.995671
    C   C6    0.382640  0.196960  0.992800  0.814223
    C   C7    0.315080  0.121000  0.029850  0.571600
    C   C8    0.382830  0.112390  0.927120  0.973431
    C   C9    0.520740  0.011050  0.699570  0.231070
    C   C10   0.539620  0.991830  0.719500  -0.289740
    C   C11   0.539870  0.991850  0.759660  0.286099
    C   C12   0.521450  0.011280  0.779880  -0.288813
    C   C13   0.502610  0.030520  0.760040  0.279049
    C   C14   0.502210  0.030390  0.719890  -0.283379
    C   C15   0.503540  0.989080  0.639960  0.485994
    C   C16   0.502730  0.988110  0.599630  -0.159097
    C   C17   0.518730  0.009510  0.578460  0.103485
    C   C18   0.535390  0.031430  0.597740  -0.129303
    C   C19   0.535860  0.031540  0.638100  0.475282
    C   C20   0.486490  0.965850  0.580290  -0.063031
    C   C21   0.485250  0.965630  0.540280  -0.173169
    C   C22   0.499410  0.988380  0.518790  0.041475
    C   C23   0.518050  0.008990  0.537960  0.028262
    C   C24   0.535980  0.029100  0.516820  0.043862
    C   C25   0.551000  0.053130  0.576510  -0.075380
    C   C26   0.550900  0.052330  0.536470  -0.165373
    C   C27   0.496380  0.990280  0.478350  0.043999
    C   C28   0.516530  0.008080  0.457180  0.033888
    C   C29   0.537470  0.026290  0.476320  0.041890
    C   C30   0.560100  0.040200  0.454710  -0.172432
    C   C31   0.559590  0.039200  0.414680  -0.079656
    C   C32   0.537080  0.023480  0.395430  -0.142150
    C   C33   0.515700  0.007710  0.416680  0.102948
    C   C34   0.472960  0.975930  0.458820  -0.168962
    C   C35   0.471850  0.976170  0.418800  -0.080340
    C   C36   0.493480  0.991590  0.397490  -0.147262
    C   C37   0.535810  0.022960  0.355100  0.485628
    C   C38   0.493000  0.991500  0.357130  0.476734
    C   C39   0.512940  0.006950  0.295600  0.216317
    C   C40   0.495260  0.027520  0.276050  -0.261135
    C   C41   0.493500  0.026670  0.235970  0.259198
    C   C42   0.509610  0.005420  0.215410  -0.252150
    C   C43   0.527280  0.984850  0.234900  0.263842
    C   C44   0.528990  0.985640  0.274980  -0.276064
    C   C45   0.633860  0.872300  0.078700  1.022606
    C   C46   0.618390  0.808420  0.003860  0.527173
    C   C47   0.705490  0.866680  0.023640  0.800806
    C   C48   0.641870  0.897490  0.934590  0.953451
    C   C49   0.130190  0.619320  0.075200  1.030586
    C   C50   0.200620  0.627570  0.015830  0.861337
    C   C51   0.114690  0.687270  0.007000  0.533844
    C   C52   0.132910  0.603870  0.927560  0.920496
    C   C53   0.998630  0.489800  0.290140  0.209902
    C   C54   0.979890  0.470990  0.268860  -0.267095
    C   C55   0.979840  0.472580  0.228730  0.275039
    C   C56   0.998440  0.493020  0.209900  -0.268652
    C   C57   0.017050  0.511900  0.231100  0.271283
    C   C58   0.017250  0.510190  0.271190  -0.283964
    C   C59   0.014650  0.467100  0.349740  0.481238
    C   C60   0.015920  0.466470  0.390080  -0.146811
    C   C61   0.001110  0.488460  0.411210  0.102358
    C   C62   0.983330  0.509200  0.391980  -0.149812
    C   C63   0.982340  0.508960  0.351630  0.486413
    C   C64   0.030870  0.443640  0.409440  -0.069223
    C   C65   0.032030  0.443350  0.449410  -0.166825
    C   C66   0.020430  0.467380  0.470910  0.039080
    C   C67   0.003460  0.489220  0.451710  0.037878
    C   C68   0.987800  0.511010  0.472770  0.028379
    C   C69   0.966080  0.529160  0.413230  -0.073257
    C   C70   0.967380  0.529260  0.453200  -0.164539
    C   C71   0.024160  0.469230  0.511360  0.047044
    C   C72   0.008540  0.491090  0.532380  0.035483
    C   C73   0.991740  0.513020  0.513150  0.051612
    C   C74   0.980500  0.537290  0.534510  -0.178827
    C   C75   0.981770  0.537150  0.574480  -0.067731
    C   C76   0.996330  0.514110  0.593930  -0.147011
    C   C77   0.010740  0.491780  0.572890  0.087727
    C   C78   0.044230  0.450690  0.531100  -0.173174
    C   C79   0.045120  0.450530  0.571090  -0.081597
    C   C80   0.027970  0.470630  0.592230  -0.120796
    C   C81   0.997580  0.513540  0.634270  0.479690
    C   C82   0.028530  0.470620  0.632600  0.467857
    C   C83   0.012480  0.490230  0.693960  0.216578
    C   C84   0.035290  0.503540  0.715280  -0.283785
    C   C85   0.034720  0.502260  0.755420  0.291797
    C   C86   0.011320  0.487770  0.774220  -0.276207
    C   C87   0.988500  0.474550  0.753000  0.264362
    C   C88   0.989100  0.475700  0.712880  -0.267408
    C   C89   0.867870  0.369740  0.902660  1.022570
    C   C90   0.867500  0.298110  0.962490  0.828900
    C   C91   0.802990  0.380110  0.977240  0.589759
    C   C92   0.890960  0.368300  0.048210  0.951005
    C   C93   0.020010  0.937270  0.013250  0.889657
    C   C94   0.061350  0.005720  0.057640  0.731569
    C   C95   0.961860  0.971070  0.074480  0.544116
    C   C96   0.993350  0.051550  0.997230  0.816367
    C   C97   0.981770  0.079290  0.980640  -0.129983
    C   C98   0.952880  0.080110  0.966310  -0.034842
    C   C99   0.939680  0.107600  0.958330  -0.164172
    C   C100  0.955370  0.134340  0.964360  0.173119
    C   C101  0.984870  0.133420  0.976060  -0.146024
    C   C102  0.998020  0.106000  0.984240  -0.101539
    C   C103  0.940360  0.162550  0.962630  -0.092752
    C   C104  0.927770  0.186160  0.961180  -0.224733
    C   C105  0.912500  0.214250  0.960490  0.286018
    C   C106  0.927860  0.240760  0.952010  -0.140287
    C   C107  0.913300  0.268210  0.953020  -0.180701
    C   C108  0.883210  0.269310  0.962580  0.006739
    C   C109  0.867940  0.242640  0.971140  -0.156739
    C   C110  0.882540  0.215250  0.970050  -0.170922
    C   C111  0.964400  0.459930  0.772570  -0.158147
    C   C112  0.944560  0.447860  0.789810  -0.069929
    C   C113  0.921270  0.433620  0.811440  -0.065823
    C   C114  0.923820  0.405140  0.822650  -0.196246
    C   C115  0.903440  0.392530  0.850100  0.213428
    C   C116  0.886910  0.382080  0.873740  -0.480581
    C   C117  0.906310  0.377870  0.082070  -0.376650
    C   C118  0.919580  0.386890  0.109750  0.102150
    C   C119  0.935910  0.398700  0.141870  -0.136216
    C   C120  0.925040  0.421320  0.162470  -0.075771
    C   C121  0.944090  0.438650  0.187150  -0.074513
    C   C122  0.960250  0.453790  0.206700  -0.175571
    C   C123  0.022030  0.909570  0.991060  -0.131646
    C   C124  0.999890  0.887660  0.994860  -0.143674
    C   C125  0.005940  0.857820  0.985930  -0.117943
    C   C126  0.034040  0.849890  0.972870  0.138770
    C   C127  0.054870  0.872310  0.964670  -0.124189
    C   C128  0.048920  0.902080  0.973840  -0.085899
    C   C129  0.043330  0.819230  0.975200  -0.063430
    C   C130  0.051700  0.793750  0.976910  -0.227622
    C   C131  0.062840  0.763860  0.981050  0.276056
    C   C132  0.058380  0.748390  0.015540  -0.162633
    C   C133  0.074190  0.722370  0.023220  -0.242340
    C   C134  0.094560  0.711590  0.996370  0.189404
    C   C135  0.097490  0.725980  0.960720  -0.250459
    C   C136  0.081760  0.752120  0.953180  -0.127449
    C   C137  0.122390  0.592460  0.891610  -0.367249
    C   C138  0.112260  0.582530  0.862270  0.121576
    C   C139  0.098720  0.570280  0.828300  -0.172253
    C   C140  0.098170  0.540670  0.822720  -0.085547
    C   C141  0.076640  0.527420  0.797400  -0.036994
    C   C142  0.057890  0.516090  0.777550  -0.197818
    C   C143  0.035320  0.533580  0.211610  -0.155673
    C   C144  0.050220  0.551640  0.194520  -0.076824
    C   C145  0.067540  0.573090  0.173150  -0.065109
    C   C146  0.092070  0.564570  0.155020  -0.185090
    C   C147  0.106140  0.584230  0.127690  0.206293
    C   C148  0.117400  0.600410  0.104100  -0.467582
    C   C149  0.930300  0.962780  0.072650  0.220221
    C   C150  0.911630  0.976850  0.046120  -0.253352
    C   C151  0.882630  0.966710  0.041320  -0.125249
    C   C152  0.872020  0.942530  0.062990  0.227167
    C   C153  0.890190  0.929150  0.090430  -0.129980
    C   C154  0.919210  0.939230  0.095320  -0.197137
    C   C155  0.843060  0.930390  0.055680  -0.151141
    C   C156  0.818880  0.919940  0.049940  -0.180332
    C   C157  0.790290  0.906710  0.043330  0.268270
    C   C158  0.783540  0.878540  0.058700  -0.178295
    C   C159  0.755970  0.865400  0.052040  -0.126250
    C   C160  0.734840  0.880370  0.029870  0.033009
    C   C161  0.741700  0.908640  0.014400  -0.126853
    C   C162  0.769350  0.921740  0.021120  -0.146153
    C   C163  0.558220  0.971250  0.780300  -0.171238
    C   C164  0.573010  0.954150  0.798650  -0.073471
    C   C165  0.589880  0.933910  0.821950  -0.071710
    C   C166  0.613630  0.943780  0.841000  -0.164951
    C   C167  0.624890  0.926940  0.872970  0.123256
    C   C168  0.633260  0.913260  0.900630  -0.390877
    C   C169  0.621650  0.891080  0.107890  -0.459140
    C   C170  0.611080  0.907240  0.131780  0.199179
    C   C171  0.598040  0.926960  0.159590  -0.175684
    C   C172  0.570760  0.921640  0.172630  -0.057345
    C   C173  0.555810  0.943740  0.195360  -0.078834
    C   C174  0.542980  0.962400  0.213710  -0.153215
    C   C175  0.090970  0.019460  0.056850  0.080040
    C   C176  0.112430  0.010820  0.083600  -0.145449
    C   C177  0.141190  0.022170  0.080850  -0.151720
    C   C178  0.148640  0.042240  0.051470  0.240778
    C   C179  0.127150  0.051390  0.025270  -0.137178
    C   C180  0.098410  0.040080  0.027950  -0.168183
    C   C181  0.178390  0.053320  0.047950  -0.157447
    C   C182  0.203190  0.062840  0.044560  -0.175934
    C   C183  0.232600  0.074690  0.040300  0.275431
    C   C184  0.242830  0.083530  0.004080  -0.122685
    C   C185  0.270320  0.097610  0.000360  -0.249522
    C   C186  0.287740  0.103060  0.032960  0.170642
    C   C187  0.277890  0.093070  0.069020  -0.201340
    C   C188  0.250390  0.079010  0.072640  -0.183335
    C   C189  0.395800  0.100260  0.893040  -0.398664
    C   C190  0.407510  0.089410  0.865370  0.125798
    C   C191  0.422360  0.075670  0.833450  -0.179852
    C   C192  0.449510  0.084740  0.823570  -0.050031
    C   C193  0.467760  0.066110  0.799820  -0.083272
    C   C194  0.483460  0.050110  0.781090  -0.170198
    C   C195  0.474080  0.046640  0.215950  -0.155519
    C   C196  0.457690  0.062810  0.198550  -0.079824
    C   C197  0.437890  0.081390  0.176950  -0.077128
    C   C198  0.448490  0.101760  0.152310  -0.155992
    C   C199  0.429190  0.115440  0.124690  0.181034
    C   C200  0.412930  0.125920  0.101010  -0.443684
    C   C201  0.398310  0.223140  0.976800  0.063524
    C   C202  0.429030  0.225870  0.980640  -0.200981
    C   C203  0.443240  0.252770  0.971080  -0.119329
    C   C204  0.426850  0.277010  0.957500  0.206274
    C   C205  0.396520  0.273650  0.951250  -0.155138
    C   C206  0.382280  0.246830  0.960820  -0.171622
    C   C207  0.440250  0.306250  0.955010  -0.162117
    C   C208  0.451370  0.330790  0.952880  -0.131680
    C   C209  0.464390  0.360260  0.952620  0.194377
    C   C210  0.447260  0.385060  0.942700  -0.179202
    C   C211  0.457280  0.414010  0.951200  -0.057069
    C   C212  0.484330  0.418200  0.970010  -0.095972
    C   C213  0.502450  0.393500  0.976980  -0.151755
    C   C214  0.492520  0.364640  0.968230  -0.129183
    C   C215  0.427130  0.538340  0.058730  0.190061
    C   C216  0.416910  0.564060  0.077550  -0.182823
    C   C217  0.387820  0.573400  0.072440  -0.142358
    C   C218  0.368700  0.557100  0.048670  0.212731
    C   C219  0.378480  0.530920  0.030890  -0.121259
    C   C220  0.407540  0.521530  0.035890  -0.228624
    C   C221  0.339500  0.568030  0.041080  -0.133865
    C   C222  0.315110  0.577410  0.034950  -0.197354
    C   C223  0.286210  0.589200  0.027590  0.292547
    C   C224  0.261020  0.571970  0.035740  -0.145721
    C   C225  0.232960  0.584070  0.030550  -0.167928
    C   C226  0.229940  0.613580  0.017290  -0.002298
    C   C227  0.255250  0.630450  0.008090  -0.131034
    C   C228  0.283250  0.618290  0.013270  -0.196737
    C   C229  0.777350  0.397240  0.990770  0.137242
    C   C230  0.768160  0.395110  0.029200  -0.234720
    C   C231  0.741820  0.408360  0.040870  -0.136530
    C   C232  0.724580  0.423910  0.014330  0.272850
    C   C233  0.734370  0.427270  0.976470  -0.182325
    C   C234  0.760660  0.414030  0.964710  -0.196209
    C   C235  0.695800  0.434370  0.025040  -0.180980
    C   C236  0.671620  0.443360  0.033140  -0.131475
    C   C237  0.642330  0.453740  0.041270  0.195049
    C   C238  0.618150  0.440610  0.022640  -0.102456
    C   C239  0.590100  0.452840  0.026700  -0.211362
    C   C240  0.586020  0.478320  0.049520  0.101757
    C   C241  0.610000  0.490570  0.069730  -0.170799
    C   C242  0.638120  0.478360  0.065470  -0.138390
    C   C243  0.521440  0.588680  0.976290  -0.131306
    C   C244  0.499550  0.610550  0.979240  -0.147024
    C   C245  0.506220  0.640400  0.970420  -0.119112
    C   C246  0.534700  0.648370  0.958310  0.151448
    C   C247  0.555250  0.625950  0.950570  -0.118379
    C   C248  0.548670  0.596170  0.959630  -0.103428
    C   C249  0.544610  0.678930  0.961700  -0.080459
    C   C250  0.553460  0.704350  0.964350  -0.204273
    C   C251  0.565060  0.734100  0.969930  0.243402
    C   C252  0.586370  0.745610  0.944670  -0.112286
    C   C253  0.602570  0.771250  0.954560  -0.275888
    C   C254  0.597720  0.785300  0.989990  0.210658
    C   C255  0.574990  0.774900  0.013970  -0.246500
    C   C256  0.558680  0.749440  0.003910  -0.145834
    H   H1    0.553790  0.976780  0.703750  0.173835
    H   H2    0.487550  0.045130  0.704430  0.174623
    H   H3    0.562900  0.070970  0.590920  0.163240
    H   H4    0.561240  0.070570  0.521000  0.138876
    H   H5    0.475130  0.948380  0.596150  0.157794
    H   H6    0.474470  0.946990  0.526220  0.144078
    H   H7    0.482660  0.043790  0.292080  0.173069
    H   H8    0.542480  0.969630  0.290180  0.177755
    H   H9    0.578850  0.050550  0.468670  0.141899
    H   H10   0.576990  0.050370  0.398750  0.168094
    H   H11   0.454820  0.965820  0.474400  0.142684
    H   H12   0.453850  0.964700  0.404480  0.164601
    H   H13   0.508100  0.004640  0.184380  0.178089
    H   H14   0.521600  0.011240  0.810990  0.190269
    H   H15   0.965390  0.455360  0.283560  0.176499
    H   H16   0.031600  0.524800  0.287690  0.177705
    H   H17   0.950880  0.544020  0.398940  0.160680
    H   H18   0.951420  0.542370  0.468660  0.141450
    H   H19   0.040770  0.425440  0.393660  0.162611
    H   H20   0.040520  0.423650  0.463350  0.137561
    H   H21   0.053290  0.514820  0.700620  0.178536
    H   H22   0.971490  0.465460  0.696350  0.170808
    H   H23   0.972180  0.557010  0.520430  0.145067
    H   H24   0.972180  0.555570  0.590180  0.161916
    H   H25   0.060270  0.437560  0.515810  0.142466
    H   H26   0.060010  0.435400  0.585490  0.167774
    H   H27   0.010840  0.486870  0.805310  0.184826
    H   H28   0.998250  0.494400  0.178840  0.183595
    H   H29   0.940150  0.059640  0.963260  0.106539
    H   H30   0.916930  0.108140  0.948940  0.121124
    H   H31   0.997250  0.153990  0.980320  0.129395
    H   H32   0.020480  0.105580  0.994770  0.116811
    H   H33   0.951080  0.240150  0.944760  0.138392
    H   H34   0.925330  0.288530  0.946030  0.157959
    H   H35   0.844810  0.243120  0.978850  0.171855
    H   H36   0.870590  0.194850  0.976920  0.141144
    H   H37   0.942460  0.391890  0.813240  0.197489
    H   H38   0.902610  0.446860  0.820780  0.177340
    H   H39   0.902560  0.428730  0.157840  0.168059
    H   H40   0.958330  0.391170  0.146660  0.177718
    H   H41   0.978880  0.893310  0.007620  0.147681
    H   H42   0.989480  0.840680  0.991660  0.128371
    H   H43   0.076450  0.866440  0.953810  0.124345
    H   H44   0.065980  0.918950  0.970140  0.129511
    H   H45   0.043610  0.757210  0.037110  0.135791
    H   H46   0.071270  0.711120  0.050500  0.211605
    H   H47   0.112940  0.717740  0.939600  0.176029
    H   H48   0.085240  0.763880  0.926360  0.134950
    H   H49   0.111360  0.526130  0.840720  0.167181
    H   H50   0.085800  0.584870  0.810040  0.189621
    H   H51   0.100350  0.542000  0.158610  0.191828
    H   H52   0.059310  0.595690  0.169640  0.171445
    H   H53   0.919820  0.995030  0.028420  0.207292
    H   H54   0.868630  0.977250  0.020170  0.140771
    H   H55   0.882030  0.910580  0.107500  0.134576
    H   H56   0.933160  0.928440  0.116270  0.139916
    H   H57   0.799650  0.866810  0.075880  0.146312
    H   H58   0.750940  0.843750  0.064490  0.120194
    H   H59   0.725730  0.920370  0.997040  0.142380
    H   H60   0.774480  0.943500  0.009020  0.136022
    H   H61   0.622440  0.966060  0.835480  0.178901
    H   H62   0.581230  0.911540  0.827260  0.173017
    H   H63   0.558960  0.901420  0.164270  0.165763
    H   H64   0.609870  0.947160  0.167980  0.191204
    H   H65   0.107030  0.994850  0.105950  0.118219
    H   H66   0.157700  0.015120  0.101310  0.141472
    H   H67   0.132730  0.067090  0.002670  0.134774
    H   H68   0.081980  0.047220  0.007430  0.146566
    H   H69   0.229220  0.080090  0.978910  0.137977
    H   H70   0.277640  0.105080  0.972350  0.183222
    H   H71   0.291310  0.096620  0.094310  0.197964
    H   H72   0.242710  0.071990  0.100690  0.137573
    H   H73   0.459130  0.104640  0.836560  0.169009
    H   H74   0.412650  0.055890  0.820290  0.186402
    H   H75   0.472040  0.106270  0.150730  0.186077
    H   H76   0.414330  0.076970  0.178580  0.179152
    H   H77   0.441710  0.207690  0.992610  0.148834
    H   H78   0.466750  0.255140  0.975740  0.143504
    H   H79   0.383750  0.292210  0.940410  0.137542
    H   H80   0.358670  0.244760  0.956870  0.172895
    H   H81   0.425580  0.381870  0.930260  0.136368
    H   H82   0.443230  0.432950  0.945370  0.106883
    H   H83   0.523600  0.396560  0.990920  0.139455
    H   H84   0.506040  0.345610  0.975560  0.118762
    H   H85   0.431550  0.577050  0.095680  0.146837
    H   H86   0.380320  0.593560  0.086490  0.137220
    H   H87   0.363750  0.518140  0.012600  0.139421
    H   H88   0.414990  0.501630  0.021230  0.194583
    H   H89   0.263160  0.549390  0.046650  0.140761
    H   H90   0.213650  0.570820  0.037850  0.158075
    H   H91   0.253250  0.653080  0.997360  0.170590
    H   H92   0.302630  0.631650  0.006620  0.147973
    H   H93   0.780860  0.382360  0.049690  0.181683
    H   H94   0.734450  0.405830  0.070260  0.137889
    H   H95   0.721260  0.439510  0.955890  0.147745
    H   H96   0.767760  0.416350  0.935180  0.195803
    H   H97   0.621210  0.421410  0.004150  0.125127
    H   H98   0.571670  0.442970  0.011380  0.159341
    H   H99   0.607090  0.510210  0.087460  0.131491
    H   H100  0.656710  0.488540  0.080150  0.144566
    H   H101  0.478250  0.604900  0.991460  0.150179
    H   H102  0.489960  0.657530  0.975710  0.126261
    H   H103  0.577110  0.631830  0.940350  0.119032
    H   H104  0.565530  0.579320  0.956470  0.140972
    H   H105  0.591330  0.733970  0.918230  0.134785
    H   H106  0.619870  0.779220  0.935630  0.186636
    H   H107  0.570650  0.785920  0.041030  0.209131
    H   H108  0.542060  0.740820  0.023440  0.132182
    N   N1    0.520020  0.010560  0.658370  -0.096691
    N   N2    0.513940  0.007140  0.336780  -0.088743
    N   N3    0.998430  0.488500  0.331330  -0.090269
    N   N4    0.012970  0.491560  0.652790  -0.086507
    O   O1    0.543880  0.497400  0.016080  -0.640756
    O   O2    0.535300  0.558300  0.029910  -0.775175
    O   O3    0.546440  0.504900  0.080410  -0.793925
    O   O4    0.467290  0.504120  0.047980  -0.653975
    O   O5    0.478270  0.549760  0.072640  -0.749237
    O   O6    0.498010  0.448720  0.024270  -0.682837
    O   O7    0.499360  0.540500  0.989950  -0.633886
    O   O8    0.489930  0.472210  0.970000  -0.725222
    O   O9    0.329360  0.122520  0.997090  -0.620811
    O   O10   0.383080  0.164410  0.074880  -0.757408
    O   O11   0.323970  0.137150  0.059070  -0.777364
    O   O12   0.395120  0.170570  0.992730  -0.668205
    O   O13   0.356520  0.200310  0.008300  -0.858600
    O   O14   0.368390  0.137320  0.926740  -0.697831
    O   O15   0.384260  0.119240  0.044770  -0.588550
    O   O16   0.389590  0.102260  0.960630  -0.698453
    O   O17   0.551730  0.051760  0.656520  -0.547668
    O   O18   0.488270  0.969390  0.660140  -0.539900
    O   O19   0.555610  0.037860  0.334840  -0.559602
    O   O20   0.472400  0.976240  0.338790  -0.550372
    O   O21   0.682630  0.883650  0.016580  -0.689611
    O   O22   0.657250  0.856230  0.086030  -0.772343
    O   O23   0.702020  0.837630  0.027110  -0.826025
    O   O24   0.629190  0.828460  0.980020  -0.563134
    O   O25   0.627790  0.807450  0.039370  -0.768032
    O   O26   0.660330  0.875490  0.933510  -0.686299
    O   O27   0.621530  0.871320  0.044690  -0.602049
    O   O28   0.627680  0.900670  0.966420  -0.686108
    O   O29   0.124270  0.668690  0.980740  -0.551494
    O   O30   0.153940  0.635160  0.082900  -0.776603
    O   O31   0.125090  0.685850  0.042000  -0.771095
    O   O32   0.176970  0.611100  0.009750  -0.693898
    O   O33   0.198110  0.656350  0.022280  -0.880172
    O   O34   0.154960  0.622480  0.929570  -0.677437
    O   O35   0.117400  0.621430  0.041570  -0.598833
    O   O36   0.117560  0.600840  0.958540  -0.678368
    O   O37   0.966100  0.528630  0.333250  -0.548968
    O   O38   0.029440  0.447300  0.329580  -0.550029
    O   O39   0.983650  0.534030  0.654340  -0.546759
    O   O40   0.043720  0.450160  0.651090  -0.548902
    O   O41   0.823710  0.372320  0.001460  -0.580802
    O   O42   0.853400  0.344740  0.896060  -0.762485
    O   O43   0.803660  0.370190  0.941870  -0.800878
    O   O44   0.882220  0.323330  0.966650  -0.672143
    O   O45   0.838790  0.298470  0.957830  -0.872562
    O   O46   0.874300  0.344570  0.047710  -0.683379
    O   O47   0.866150  0.382810  0.936270  -0.592671
    O   O48   0.891100  0.384180  0.017270  -0.694999
    O   O49   0.970940  0.996780  0.060540  -0.665285
    O   O50   0.036580  0.940620  0.043920  -0.784942
    O   O51   0.981220  0.951600  0.086490  -0.735535
    O   O52   0.047000  0.001420  0.025500  -0.653343
    O   O53   0.049680  0.996910  0.090240  -0.777974
    O   O54   0.005250  0.051230  0.031010  -0.668585
    O   O55   0.001510  0.958330  0.002920  -0.641923
    O   O56   0.988330  0.025530  0.982050  -0.733533
    Zn  Zn1   0.501040  0.500610  0.013810  1.213405
    Zn  Zn2   0.519370  0.538740  0.079380  1.297377
    Zn  Zn3   0.371370  0.133990  0.994520  1.191892
    Zn  Zn4   0.343070  0.175570  0.050840  1.309840
    Zn  Zn5   0.645070  0.866920  0.997710  1.172307
    Zn  Zn6   0.667610  0.820100  0.052090  1.303864
    Zn  Zn7   0.139690  0.628930  0.994120  1.163068
    Zn  Zn8   0.165070  0.672430  0.050980  1.319501
    Zn  Zn9   0.863060  0.359800  0.984190  1.170720
    Zn  Zn10  0.819220  0.330810  0.930940  1.318936
    Zn  Zn11  0.004330  0.998840  0.024800  1.238144
    Zn  Zn12  0.022470  0.962860  0.092240  1.289236
