# Generated by REPEAT Assigner based on pymatgen
data_DB7-ddmof_5561
_audit_creation_date              2022-05-24
_audit_creation_method            REPEAT_Assigner
_cell_length_a                    24.797180
_cell_length_b                    25.170490
_cell_length_c                    36.164310
_cell_angle_alpha                 60.817210
_cell_angle_beta                  118.871490
_cell_angle_gamma                 133.273800
_cell_volume                      13950.865043
_symmetry_space_group_name_H-M    P1
_symmetry_Int_Tables_number       1
loop_
    _symmetry_equiv_pos_site_id
    _symmetry_equiv_pos_as_xyz
    1  x,y,z
loop_
    _atom_site_type_symbol
    _atom_site_label
    _atom_site_fract_x
    _atom_site_fract_y
    _atom_site_fract_z
    _atom_type_partial_charge
    Co  Co1   0.027040  0.989380  0.057880  1.228641
    Co  Co2   0.005590  0.058950  0.103770  1.225604
    O   O1    0.056660  0.085090  0.061260  -0.578901
    C   C1    0.098460  0.160840  0.164970  0.988020
    C   C2    0.074190  0.823950  0.132630  0.827851
    O   O2    0.055490  0.113180  0.193340  -0.723661
    O   O3    0.101460  0.136500  0.141060  -0.710525
    O   O4    0.023420  0.793140  0.099680  -0.652095
    O   O5    0.066430  0.857510  0.146780  -0.651074
    Co  Co3   0.069640  0.034950  0.556640  1.291803
    Co  Co4   0.020780  0.098690  0.587270  1.258824
    Co  Co5   0.105760  0.922100  0.574100  1.274795
    O   O6    0.067940  0.122050  0.543480  -0.577834
    C   C3    0.105170  0.204790  0.645330  0.987189
    O   O7    0.057770  0.155090  0.671400  -0.715451
    O   O8    0.111800  0.183550  0.621200  -0.734007
    O   O9    0.107560  0.894620  0.677070  -0.731556
    O   O10   0.057060  0.952570  0.586550  -0.722010
    C   C4    0.075890  0.017530  0.886980  -0.194851
    C   C5    0.072670  0.017960  0.924660  -0.139858
    C   C6    0.078380  0.028810  0.306920  -0.100084
    C   C7    0.080640  0.035700  0.344110  -0.209274
    H   H1    0.109330  0.079230  0.283230  0.129409
    H   H2    0.115420  0.091050  0.349380  0.149341
    C   C8    0.129730  0.326550  0.628210  -0.391358
    H   H3    0.082560  0.411490  0.600840  0.147105
    H   H4    0.076310  0.308120  0.603820  0.192179
    C   C9    0.137410  0.776130  0.692320  -0.249189
    H   H5    0.072800  0.660910  0.662400  0.188514
    H   H6    0.076350  0.746290  0.679880  0.154670
    H   H7    0.083680  0.273050  0.111440  0.175139
    H   H8    0.115910  0.769900  0.219950  0.144960
    O   O11   0.003430  0.013260  0.989020  -0.651022
    O   O12   0.016060  0.946960  0.229390  -0.710805
    Co  Co6   0.016330  0.899430  0.629870  1.263302
    O   O13   0.035040  0.018420  0.494090  -0.634753
    O   O14   0.009310  0.982500  0.715300  -0.668360
    O   O15   0.034880  0.810100  0.604550  -0.755250
    C   C10   0.016730  0.008070  0.849430  0.353228
    C   C11   0.006080  0.996570  0.776230  -0.226792
    C   C12   0.015650  0.001430  0.811090  -0.136240
    C   C13   0.009330  0.007140  0.925460  -0.144399
    C   C14   0.035760  0.971460  0.373260  0.280200
    C   C15   0.031050  0.977780  0.443330  -0.310794
    C   C16   0.033590  0.977990  0.410440  -0.046560
    C   C17   0.029040  0.957850  0.297720  -0.114422
    C   C18   0.134970  0.428350  0.625990  -0.274029
    C   C19   0.133220  0.688940  0.677040  -0.336968
    C   C20   0.130860  0.288200  0.139810  -0.338675
    H   H9    0.092190  0.383550  0.098790  0.166030
    O   O16   0.100860  0.943340  0.035910  -0.800311
    C   C21   0.029060  0.967640  0.485940  0.963804
    C   C22   0.136890  0.395940  0.128340  -0.303927
    O   O17   0.024140  0.908600  0.516510  -0.693876
    H   H10   0.123180  0.022360  0.887560  0.146533
    H   H11   0.116600  0.021110  0.954090  0.143877
    H   H12   0.140340  0.627200  0.656760  0.124091
    O   O18   0.129530  0.004770  0.080830  -0.717982
    C   C23   0.156750  0.897270  0.669080  1.020941
    C   C24   0.158000  0.283640  0.647720  -0.020167
    C   C25   0.153420  0.240140  0.166230  -0.082517
    C   C26   0.150980  0.991330  0.061150  0.854414
    C   C27   0.166620  0.389210  0.642850  0.279686
    H   H13   0.147800  0.521510  0.626520  0.128532
    H   H14   0.150200  0.493840  0.121680  0.116308
    C   C28   0.134810  0.813130  0.155810  -0.046239
    C   C29   0.140960  0.774500  0.199990  -0.149213
    C   C30   0.171330  0.490070  0.641080  -0.154703
    C   C31   0.171560  0.668920  0.674420  -0.140648
    C   C32   0.173520  0.748240  0.695680  0.255254
    C   C33   0.163550  0.351190  0.152580  0.271415
    C   C34   0.168710  0.457670  0.141800  -0.129701
    C   C35   0.168570  0.819420  0.130640  -0.151687
    H   H15   0.165230  0.850550  0.096730  0.084780
    H   H16   0.172740  0.538410  0.181940  0.130968
    C   C36   0.173390  0.735880  0.217440  -0.249377
    Co  Co7   0.988680  0.850350  0.040670  1.210463
    C   C37   0.988370  0.972350  0.967630  0.921732
    O   O19   0.979870  0.895790  0.071290  -0.623011
    O   O20   0.947970  0.899330  0.981200  -0.662666
    C   C38   0.992260  0.953830  0.251630  1.034039
    O   O21   0.181410  0.940900  0.633210  -0.734690
    C   C39   0.980780  0.994080  0.731210  0.990876
    C   C40   0.700260  0.230420  0.079150  0.150718
    C   C41   0.620370  0.182020  0.072870  -0.319630
    C   C42   0.584580  0.192710  0.086340  0.212140
    C   C43   0.627390  0.254650  0.103080  -0.263454
    C   C44   0.706690  0.304440  0.108630  0.116065
    C   C45   0.743430  0.289840  0.098860  -0.285418
    H   H17   0.586100  0.136990  0.057100  0.127560
    H   H18   0.598540  0.265130  0.110670  0.137212
    H   H19   0.805080  0.325630  0.105560  0.131034
    C   C46   0.713520  0.300680  0.517420  0.129927
    C   C47   0.636290  0.267880  0.510790  -0.258397
    C   C48   0.616440  0.302910  0.517060  0.124681
    C   C49   0.672830  0.373560  0.526250  -0.260425
    C   C50   0.749700  0.407980  0.531950  0.178271
    C   C51   0.770370  0.371300  0.527920  -0.290327
    H   H20   0.592070  0.213860  0.502550  0.127033
    H   H21   0.657040  0.400550  0.530780  0.134649
    H   H22   0.830030  0.396430  0.534030  0.139163
    C   C52   0.277540  0.645610  0.194360  0.190702
    C   C53   0.234390  0.573050  0.189000  -0.326140
    C   C54   0.270990  0.547820  0.189590  0.168837
    C   C55   0.350220  0.595600  0.195200  -0.292508
    C   C56   0.393180  0.667310  0.201080  0.156881
    C   C57   0.357210  0.689650  0.204000  -0.285234
    H   H23   0.377850  0.578910  0.192010  0.144005
    H   H24   0.390490  0.745450  0.208280  0.118882
    C   C58   0.290530  0.681970  0.690240  0.103639
    C   C59   0.252830  0.606390  0.691970  -0.252748
    C   C60   0.285850  0.587420  0.682550  0.128897
    C   C61   0.360340  0.641840  0.676840  -0.241730
    C   C62   0.399710  0.716670  0.676290  0.140175
    C   C63   0.364190  0.737220  0.681960  -0.257048
    H   H25   0.197160  0.562930  0.699350  0.123008
    H   H26   0.386950  0.626470  0.671360  0.139454
    H   H27   0.392940  0.795850  0.678970  0.126389
    Co  Co8   0.945360  0.917100  0.169610  1.209297
    Co  Co9   0.966500  0.849100  0.122920  1.188320
    Co  Co10  0.939570  0.038500  0.173130  1.233395
    C   C64   0.863670  0.716670  0.082050  0.670877
    O   O22   0.944960  0.123330  0.118070  -0.762845
    O   O23   0.958930  0.999830  0.144300  -0.642201
    C   C65   0.911440  0.111500  0.079160  0.919341
    O   O24   0.950020  0.834400  0.178060  -0.590114
    C   C66   0.797870  0.884910  0.166120  0.773577
    O   O25   0.956520  0.943420  0.102930  -0.840194
    O   O26   0.932060  0.090760  0.064020  -0.646226
    O   O27   0.827630  0.957590  0.150190  -0.652182
    O   O28   0.835240  0.857560  0.175400  -0.617736
    O   O29   0.936590  0.960610  0.232040  -0.764873
    O   O30   0.877140  0.765470  0.044720  -0.563254
    O   O31   0.880060  0.738370  0.115140  -0.568271
    Co  Co11  0.952170  0.956300  0.654030  1.256356
    C   C67   0.220070  0.088330  0.558530  1.007286
    Co  Co12  0.942820  0.083040  0.646800  1.250086
    C   C68   0.962280  0.776170  0.598600  0.911584
    O   O32   0.955920  0.168040  0.590610  -0.778434
    O   O33   0.971220  0.041600  0.626600  -0.661953
    C   C69   0.926700  0.155320  0.552260  0.929279
    O   O34   0.958710  0.871390  0.669260  -0.571998
    C   C70   0.800710  0.931450  0.636330  0.878700
    O   O35   0.991590  0.986050  0.597350  -0.881858
    O   O36   0.942550  0.123200  0.543070  -0.639157
    O   O37   0.832790  0.004460  0.620000  -0.680595
    O   O38   0.835670  0.901000  0.646410  -0.640459
    O   O39   0.927970  0.004120  0.705830  -0.763359
    O   O40   0.181100  0.030800  0.542670  -0.771989
    O   O41   0.186700  0.093680  0.574610  -0.730145
    O   O42   0.939690  0.803180  0.606840  -0.618987
    C   C71   0.953780  0.004400  0.886580  -0.017258
    C   C72   0.957290  0.004570  0.848880  -0.290621
    H   H28   0.904790  0.996380  0.886400  0.112125
    H   H29   0.912240  0.999290  0.819690  0.171730
    C   C73   0.994420  0.900090  0.367110  -0.192548
    C   C74   0.992000  0.893320  0.329870  -0.106137
    H   H30   0.961970  0.849800  0.390320  0.146479
    H   H31   0.955060  0.838050  0.323970  0.113009
    C   C75   0.239700  0.513380  0.673370  0.113463
    C   C76   0.234620  0.411390  0.675800  0.225742
    C   C77   0.270090  0.472490  0.691550  -0.334664
    C   C78   0.266070  0.372000  0.692660  -0.278193
    C   C79   0.227770  0.308300  0.678750  -0.106264
    H   H32   0.322350  0.489670  0.716870  0.152585
    H   H33   0.318920  0.389250  0.717440  0.154626
    H   H34   0.250060  0.275610  0.693970  0.134993
    C   C80   0.478380  0.773170  0.669590  0.094227
    C   C81   0.538530  0.814480  0.700810  -0.139668
    C   C82   0.614190  0.853720  0.700610  -0.307210
    C   C83   0.630490  0.850760  0.669730  0.292986
    C   C84   0.570390  0.811280  0.637430  0.192833
    C   C85   0.494850  0.775340  0.636450  -0.306459
    C   C86   0.586440  0.806280  0.607390  -0.240174
    C   C87   0.661780  0.841200  0.609020  -0.109949
    C   C88   0.721830  0.882110  0.640320  -0.019881
    C   C89   0.706050  0.886360  0.670870  -0.355418
    H   H35   0.526660  0.813500  0.726380  0.127876
    H   H36   0.659950  0.884500  0.725270  0.166231
    H   H37   0.448590  0.745300  0.611520  0.140757
    H   H38   0.540680  0.775600  0.582690  0.145503
    H   H39   0.673630  0.838580  0.585000  0.116821
    H   H40   0.752610  0.918600  0.694830  0.168329
    C   C90   0.250070  0.703860  0.693480  0.137828
    C   C91   0.252530  0.785090  0.714010  0.185313
    C   C92   0.289970  0.760620  0.714570  -0.318144
    C   C93   0.293800  0.849040  0.728840  -0.239734
    C   C94   0.258590  0.880920  0.720710  -0.104781
    C   C95   0.181300  0.847730  0.699040  -0.111827
    H   H41   0.349950  0.786770  0.730330  0.155787
    H   H42   0.354160  0.877030  0.743910  0.145214
    H   H43   0.292940  0.934840  0.727710  0.117958
    C   C96   0.215610  0.260770  0.202280  -0.041932
    C   C97   0.249400  0.324120  0.214780  -0.301032
    C   C98   0.221650  0.367880  0.191050  0.216454
    C   C99   0.226530  0.474520  0.180120  0.110003
    C   C100  0.250990  0.427810  0.205400  -0.318944
    H   H44   0.233920  0.224420  0.222590  0.112293
    H   H45   0.295370  0.337600  0.243740  0.155636
    H   H46   0.294960  0.440070  0.235280  0.151293
    C   C101  0.471810  0.723370  0.195270  0.120158
    C   C102  0.490240  0.788860  0.161190  -0.102949
    C   C103  0.557780  0.833210  0.148450  -0.328948
    C   C104  0.607220  0.812090  0.169240  0.250684
    C   C105  0.590610  0.748100  0.204740  0.250786
    C   C106  0.523880  0.705200  0.218330  -0.351523
    C   C107  0.639760  0.726630  0.225250  -0.268103
    C   C108  0.705510  0.769000  0.211050  -0.103034
    C   C109  0.722890  0.833400  0.176220  -0.036883
    C   C110  0.672690  0.853770  0.154820  -0.320399
    H   H47   0.450370  0.803310  0.143170  0.108672
    H   H48   0.570580  0.882810  0.121570  0.169274
    H   H49   0.510310  0.655390  0.245180  0.152775
    H   H50   0.627350  0.677420  0.252370  0.147527
    H   H51   0.744180  0.753120  0.228030  0.141638
    H   H52   0.685330  0.902770  0.127500  0.184772
    C   C111  0.198030  0.734160  0.190470  0.249669
    C   C112  0.196030  0.776890  0.146800  0.134376
    C   C113  0.216220  0.772280  0.118910  -0.239185
    C   C114  0.237160  0.724760  0.133930  -0.187473
    C   C115  0.241120  0.683340  0.177480  0.195832
    C   C116  0.221940  0.688290  0.205940  -0.370701
    H   H53   0.175740  0.704380  0.251220  0.160052
    H   H54   0.214610  0.804730  0.085310  0.153954
    H   H55   0.253040  0.722040  0.112080  0.130478
    H   H56   0.225920  0.657030  0.239760  0.145961
    C   C117  0.874330  0.175610  0.520480  -0.121292
    C   C118  0.904980  0.249020  0.493550  -0.065819
    C   C119  0.873960  0.286270  0.483010  -0.246452
    C   C120  0.812610  0.250500  0.499840  0.220004
    C   C121  0.776650  0.173950  0.522760  0.175070
    C   C122  0.804490  0.135540  0.529910  -0.203635
    C   C123  0.718640  0.139040  0.542040  -0.254330
    C   C124  0.699220  0.180650  0.540760  -0.139006
    C   C125  0.734680  0.257030  0.518170  0.132326
    C   C126  0.790170  0.291400  0.496710  -0.341315
    H   H57   0.957320  0.279870  0.484540  0.096875
    H   H58   0.900810  0.344330  0.464270  0.147205
    H   H59   0.778000  0.077310  0.548430  0.148105
    H   H60   0.690860  0.080380  0.559800  0.138080
    H   H61   0.657320  0.153720  0.557960  0.119247
    H   H62   0.816970  0.349910  0.478660  0.149943
    C   C127  0.906680  0.705740  0.584450  -0.166462
    C   C128  0.855210  0.703090  0.543710  -0.003812
    C   C129  0.819620  0.647650  0.523290  -0.340448
    C   C130  0.834700  0.593820  0.543640  0.322561
    C   C131  0.883360  0.593860  0.585620  0.128069
    C   C132  0.917980  0.649020  0.606160  -0.194374
    C   C133  0.897140  0.539030  0.606360  -0.239481
    C   C134  0.859320  0.481930  0.586630  -0.130300
    C   C135  0.808080  0.479580  0.545720  0.079968
    C   C136  0.799920  0.538570  0.523150  -0.346161
    H   H63   0.846220  0.746630  0.526700  0.116683
    H   H64   0.781370  0.647400  0.491350  0.163078
    H   H65   0.956070  0.649780  0.638190  0.130471
    H   H66   0.935320  0.539210  0.638320  0.139286
    H   H67   0.866480  0.437130  0.604250  0.115128
    H   H68   0.761790  0.537920  0.491080  0.148043
    C   C137  0.537370  0.263370  0.517540  0.147090
    C   C138  0.479530  0.246950  0.479350  -0.170224
    C   C139  0.406600  0.217970  0.478250  -0.274635
    C   C140  0.390730  0.204800  0.515450  0.213084
    C   C141  0.448800  0.221450  0.553950  0.250553
    C   C142  0.521730  0.250110  0.554920  -0.342025
    C   C143  0.432510  0.207370  0.591270  -0.297211
    C   C144  0.357720  0.171300  0.591390  -0.083447
    C   C145  0.298890  0.149590  0.554170  -0.094683
    C   C146  0.316630  0.171450  0.515380  -0.265147
    H   H69   0.491480  0.258030  0.450270  0.125926
    H   H70   0.362390  0.205390  0.448540  0.165212
    H   H71   0.566540  0.262900  0.584440  0.151698
    H   H72   0.477030  0.221500  0.620710  0.154236
    H   H73   0.344740  0.155620  0.621290  0.143362
    H   H74   0.271390  0.156590  0.486210  0.150918
    C   C147  0.738730  0.220430  0.063940  0.130816
    C   C148  0.801860  0.283750  0.045510  -0.144391
    C   C149  0.843810  0.275110  0.036240  -0.289205
    C   C150  0.821250  0.202950  0.043350  0.206131
    C   C151  0.752990  0.139040  0.056890  0.237793
    C   C152  0.713270  0.147770  0.068530  -0.337635
    C   C153  0.728070  0.067080  0.061150  -0.303376
    C   C154  0.775650  0.058550  0.057780  -0.045514
    C   C155  0.850110  0.121140  0.053150  -0.140203
    C   C156  0.868980  0.193610  0.040590  -0.207395
    H   H75   0.819320  0.339820  0.039100  0.120537
    H   H76   0.894590  0.324610  0.024270  0.161155
    H   H77   0.664770  0.098450  0.082630  0.161698
    H   H78   0.673720  0.017610  0.069140  0.149136
    H   H79   0.758290  0.002450  0.064390  0.123267
    H   H80   0.924830  0.242470  0.034360  0.129543
    C   C157  0.749490  0.376780  0.119040  0.125037
    C   C158  0.732960  0.378280  0.150600  -0.164036
    C   C159  0.755850  0.446140  0.151940  -0.229087
    C   C160  0.797750  0.513590  0.122740  0.188416
    C   C161  0.821430  0.513230  0.094300  0.160421
    C   C162  0.796970  0.444940  0.092470  -0.283538
    C   C163  0.866140  0.580640  0.066520  -0.250901
    C   C164  0.882980  0.647140  0.064580  -0.034094
    C   C165  0.854610  0.647460  0.090070  -0.029294
    C   C166  0.814020  0.580960  0.120320  -0.229942
    H   H81   0.699180  0.326360  0.172660  0.117757
    H   H82   0.739450  0.445800  0.174970  0.153017
    H   H83   0.810960  0.444450  0.068520  0.151894
    H   H84   0.886560  0.581350  0.045570  0.155223
    H   H85   0.916800  0.698520  0.042320  0.040420
    H   H86   0.793220  0.580980  0.140680  0.145921
    C   C167  0.501910  0.139270  0.082970  0.156752
    C   C168  0.473290  0.074450  0.116840  -0.209735
    C   C169  0.399020  0.033550  0.120040  -0.180434
    C   C170  0.352530  0.056970  0.089210  0.113740
    C   C171  0.379650  0.119710  0.053640  0.234242
    C   C172  0.454200  0.160360  0.050610  -0.336084
    C   C173  0.332520  0.142070  0.022270  -0.257770
    C   C174  0.258710  0.101870  0.025870  -0.129927
    C   C175  0.231650  0.039640  0.061130  0.065294
    C   C176  0.279420  0.018770  0.093480  -0.250550
    H   H87   0.509840  0.057810  0.141840  0.120705
    H   H88   0.378200  0.984530  0.146910  0.136254
    H   H89   0.476340  0.210330  0.024340  0.136915
    H   H90   0.352720  0.190150  0.994900  0.160001
    H   H91   0.222110  0.118470  0.000910  0.111237
    H   H92   0.259770  0.973040  0.121750  0.132624
