# Generated by REPEAT Assigner based on pymatgen
data_DB7-ddmof_16190
_audit_creation_date              2022-05-24
_audit_creation_method            REPEAT_Assigner
_cell_length_a                    36.327140
_cell_length_b                    37.420590
_cell_length_c                    20.147290
_cell_angle_alpha                 91.982470
_cell_angle_beta                  91.016150
_cell_angle_gamma                 90.121810
_cell_volume                      27367.083566
_symmetry_space_group_name_H-M    P1
_symmetry_Int_Tables_number       1
loop_
    _symmetry_equiv_pos_site_id
    _symmetry_equiv_pos_as_xyz
    1  x,y,z
loop_
    _atom_site_type_symbol
    _atom_site_label
    _atom_site_fract_x
    _atom_site_fract_y
    _atom_site_fract_z
    _atom_type_partial_charge
    Br  Br1   0.897820  0.164700  0.604170  -0.090379
    Br  Br2   0.917770  0.217780  0.905740  -0.005059
    Br  Br3   0.967360  0.188240  0.202330  0.005106
    Br  Br4   0.838360  0.144810  0.414090  -0.008141
    Br  Br5   0.741090  0.984800  0.156420  -0.081932
    Br  Br6   0.665120  0.005160  0.447350  0.000883
    Br  Br7   0.943320  0.099060  0.508830  0.118937
    Br  Br8   0.897400  0.950250  0.340250  -0.328637
    Br  Br9   0.868800  0.071180  0.647490  -0.082226
    Br  Br10  0.936370  0.907850  0.674820  -0.135840
    Br  Br11  0.706860  0.076150  0.865270  0.025103
    Br  Br12  0.786880  0.935690  0.991570  0.029790
    Br  Br13  0.963210  0.071770  0.958000  -0.089351
    Br  Br14  0.890270  0.912510  0.007480  0.158348
    Br  Br15  0.851710  0.801990  0.942100  0.009879
    Br  Br16  0.988310  0.818260  0.734810  -0.109321
    Br  Br17  0.060580  0.076920  0.893120  0.037086
    Br  Br18  0.105630  0.916030  0.779640  0.024446
    Br  Br19  0.865210  0.912410  0.180390  -0.081812
    Br  Br20  0.907980  0.083400  0.146500  -0.215558
    Br  Br21  0.830860  0.825510  0.434870  0.055777
    Br  Br22  0.993160  0.902500  0.453130  0.006666
    Br  Br23  0.022090  0.986580  0.090870  0.133213
    Br  Br24  0.146040  0.028510  0.320700  -0.000228
    C   C1    0.021510  0.809950  0.172910  0.950007
    C   C2    0.945500  0.949180  0.191260  0.541011
    C   C3    0.953540  0.866200  0.316810  0.385629
    C   C4    0.050680  0.935150  0.209680  0.863627
    C   C5    0.089400  0.834440  0.043930  0.732137
    C   C6    0.970520  0.929030  0.957760  0.646006
    C   C7    0.071480  0.935760  0.921440  0.638872
    C   C8    0.992430  0.829880  0.898250  0.602092
    C   C9    0.056400  0.666040  0.984390  0.902335
    C   C10   0.014180  0.618160  0.977000  0.859044
    C   C11   0.047740  0.633480  0.882980  1.077199
    C   C12   0.012620  0.646280  0.281530  0.822738
    C   C13   0.009410  0.622190  0.387790  1.037198
    C   C14   0.979610  0.593040  0.296210  0.859790
    C   C15   0.722890  0.848540  0.739270  0.629715
    C   C16   0.857890  0.937200  0.725250  0.480293
    C   C17   0.763480  0.945280  0.835170  0.419744
    C   C18   0.850290  0.845560  0.806680  0.925775
    C   C19   0.745170  0.935640  0.627130  0.587139
    C   C20   0.847120  0.994600  0.441030  0.359191
    C   C21   0.849580  0.900950  0.507370  0.287686
    C   C22   0.742140  0.962250  0.415000  0.893045
    C   C23   0.555640  0.881740  0.841100  0.954852
    C   C24   0.530010  0.896370  0.945090  0.940357
    C   C25   0.501410  0.915950  0.847060  0.985653
    C   C26   0.573970  0.959380  0.539400  1.037073
    C   C27   0.516320  0.986330  0.521160  1.113477
    C   C28   0.542770  0.950260  0.436720  1.088402
    C   C29   0.734200  0.174850  0.142870  0.609358
    C   C30   0.830310  0.048580  0.183130  0.625341
    C   C31   0.830440  0.151010  0.255460  0.880111
    C   C32   0.730680  0.060760  0.244150  0.884389
    C   C33   0.813870  0.188750  0.040610  0.981073
    C   C34   0.878100  0.051380  0.953600  0.285598
    C   C35   0.773940  0.076470  0.970040  0.510469
    C   C36   0.870570  0.143750  0.859980  0.801744
    C   C37   0.841130  0.350330  0.941250  0.865138
    C   C38   0.841250  0.374820  0.835130  1.059266
    C   C39   0.863480  0.408640  0.928190  0.842235
    C   C40   0.785670  0.336380  0.234500  1.009693
    C   C41   0.803850  0.363190  0.337480  1.062614
    C   C42   0.815320  0.392400  0.238210  0.916719
    C   C43   0.091310  0.124660  0.599670  0.771624
    C   C44   0.953930  0.049150  0.669680  0.419540
    C   C45   0.058730  0.048100  0.739970  0.819117
    C   C46   0.976810  0.150580  0.701370  0.875893
    C   C47   0.098950  0.172950  0.425620  0.704645
    C   C48   0.982910  0.064820  0.378280  0.194571
    C   C49   0.979370  0.162720  0.350510  0.560959
    C   C50   0.074660  0.076840  0.279960  0.643892
    C   C51   0.266220  0.123590  0.673890  1.003299
    C   C52   0.320510  0.093030  0.702460  1.036749
    C   C53   0.297290  0.137730  0.775230  1.079971
    C   C54   0.275700  0.177080  0.362060  0.914690
    C   C55   0.312160  0.177340  0.266580  1.102763
    C   C56   0.337330  0.157900  0.367810  0.982448
    C   C57   0.296880  0.154570  0.842690  -0.304423
    C   C58   0.328440  0.172330  0.869880  0.494816
    C   C59   0.330980  0.179650  0.938730  -0.405862
    C   C60   0.302110  0.170530  0.980300  0.053726
    C   C61   0.269000  0.156270  0.952110  0.417778
    C   C62   0.266800  0.148250  0.883480  -0.353144
    C   C63   0.308090  0.173000  0.053440  0.079275
    C   C64   0.300820  0.205350  0.087940  -0.350371
    C   C65   0.304280  0.208050  0.157600  0.413583
    C   C66   0.314070  0.177410  0.193300  -0.287794
    C   C67   0.322850  0.145520  0.158510  -0.330412
    C   C68   0.320180  0.143020  0.088870  0.352367
    C   C69   0.239850  0.179190  0.390810  -0.350943
    C   C70   0.208690  0.180020  0.410450  0.152411
    C   C71   0.171000  0.179570  0.426190  -0.017135
    C   C72   0.138070  0.177590  0.431390  -0.159242
    C   C73   0.231760  0.122900  0.637580  -0.385390
    C   C74   0.201120  0.122330  0.613430  0.169185
    C   C75   0.163420  0.122070  0.594860  -0.059031
    C   C76   0.130300  0.122620  0.589890  -0.027386
    C   C77   0.834670  0.371020  0.762390  -0.396491
    C   C78   0.847570  0.340880  0.724990  0.521322
    C   C79   0.838920  0.337490  0.656770  -0.371119
    C   C80   0.821500  0.365400  0.623820  0.057194
    C   C81   0.809790  0.396140  0.660680  0.380103
    C   C82   0.815710  0.398180  0.729860  -0.292569
    C   C83   0.817670  0.363050  0.550180  0.091722
    C   C84   0.783320  0.354230  0.521070  -0.375778
    C   C85   0.777730  0.355320  0.451890  0.491439
    C   C86   0.808140  0.361800  0.410650  -0.328303
    C   C87   0.842930  0.368810  0.439760  -0.364478
    C   C88   0.847810  0.370540  0.509120  0.413458
    C   C89   0.881990  0.155860  0.741760  -0.203905
    C   C90   0.888330  0.164810  0.809140  -0.024036
    C   C91   0.918120  0.187760  0.826510  -0.060714
    C   C92   0.946820  0.190990  0.781940  -0.119366
    C   C93   0.944840  0.172050  0.720810  -0.306119
    C   C94   0.909880  0.161690  0.696450  0.387104
    C   C95   0.837100  0.319540  0.981090  -0.322383
    C   C96   0.833280  0.291840  0.009010  0.085705
    C   C97   0.827900  0.257240  0.032830  0.096212
    C   C98   0.822180  0.226220  0.043090  -0.292168
    C   C99   0.896460  0.162540  0.238790  -0.063441
    C   C100  0.868430  0.153280  0.282320  -0.259841
    C   C101  0.876330  0.152610  0.351090  0.039687
    C   C102  0.912450  0.159130  0.374490  -0.218363
    C   C103  0.940630  0.166310  0.329860  0.175386
    C   C104  0.931800  0.170360  0.262510  -0.123737
    C   C105  0.740710  0.212570  0.139690  -0.023906
    C   C106  0.748860  0.243620  0.149030  -0.116042
    C   C107  0.760590  0.278120  0.171110  0.211694
    C   C108  0.771710  0.305700  0.197100  -0.423520
    C   C109  0.490410  0.015350  0.537520  -0.259531
    C   C110  0.452180  0.008390  0.538120  0.411361
    C   C111  0.427330  0.035890  0.523770  -0.302075
    C   C112  0.440310  0.070080  0.509690  0.081862
    C   C113  0.478050  0.078320  0.520370  0.384203
    C   C114  0.502800  0.050770  0.534810  -0.275874
    C   C115  0.416040  0.094260  0.472180  0.036388
    C   C116  0.397150  0.121630  0.506420  -0.348511
    C   C117  0.374280  0.145200  0.471980  0.428358
    C   C118  0.366950  0.138660  0.403240  -0.287383
    C   C119  0.386140  0.111420  0.368990  -0.276227
    C   C120  0.411310  0.089740  0.402440  0.322009
    C   C121  0.474000  0.939160  0.814860  -0.342989
    C   C122  0.455120  0.928070  0.755430  0.478105
    C   C123  0.432260  0.952430  0.722990  -0.403472
    C   C124  0.425210  0.986300  0.751920  0.075760
    C   C125  0.441840  0.996300  0.814000  0.378927
    C   C126  0.467290  0.973240  0.843250  -0.250301
    C   C127  0.398220  0.009960  0.719320  -0.005232
    C   C128  0.360690  0.001660  0.722380  -0.423726
    C   C129  0.333940  0.027570  0.709110  0.577796
    C   C130  0.345190  0.062300  0.692020  -0.332956
    C   C131  0.382480  0.068900  0.680150  -0.342180
    C   C132  0.409220  0.042940  0.693500  0.458045
    C   C133  0.544060  0.939800  0.365330  -0.314286
    C   C134  0.539150  0.965490  0.315880  0.507872
    C   C135  0.535320  0.954070  0.249040  -0.469685
    C   C136  0.539910  0.918000  0.229920  0.097875
    C   C137  0.547600  0.892590  0.278880  0.446484
    C   C138  0.548850  0.903700  0.346350  -0.358330
    C   C139  0.538770  0.907730  0.158000  0.069894
    C   C140  0.568830  0.916590  0.119010  -0.383581
    C   C141  0.566150  0.914330  0.049360  0.486006
    C   C142  0.534070  0.899260  0.018290  -0.290411
    C   C143  0.504750  0.888530  0.057510  -0.318761
    C   C144  0.506440  0.893280  0.127050  0.363703
    C   C145  0.732950  0.968880  0.294160  0.082158
    C   C146  0.720640  0.975680  0.358970  -0.133524
    C   C147  0.695200  0.003470  0.369990  0.026014
    C   C148  0.692290  0.030410  0.324030  -0.265694
    C   C149  0.713330  0.028210  0.266470  -0.063890
    C   C150  0.728040  0.994910  0.246790  0.093217
    C   C151  0.894440  0.042220  0.466200  -0.138040
    C   C152  0.883840  0.010750  0.430830  -0.039807
    C   C153  0.908320  0.995010  0.385040  0.405246
    C   C154  0.941550  0.011870  0.371810  -0.786363
    C   C155  0.951780  0.044010  0.404910  0.473880
    C   C156  0.928610  0.058450  0.454610  -0.215938
    C   C157  0.607470  0.956670  0.578020  -0.329980
    C   C158  0.637340  0.953550  0.604340  0.146167
    C   C159  0.674190  0.948720  0.625790  -0.043694
    C   C160  0.706700  0.943420  0.633500  -0.040575
    C   C161  0.865590  0.996530  0.674820  -0.495998
    C   C162  0.879680  0.962420  0.686150  0.218650
    C   C163  0.917130  0.955510  0.672800  0.063487
    C   C164  0.940920  0.983760  0.658290  -0.414415
    C   C165  0.927750  0.018960  0.657050  0.349279
    C   C166  0.889330  0.024760  0.660340  0.233984
    C   C167  0.736150  0.004900  0.859560  -0.036825
    C   C168  0.757290  0.976090  0.881400  -0.179602
    C   C169  0.773070  0.978010  0.946050  0.198889
    C   C170  0.774430  0.011010  0.981050  -0.277262
    C   C171  0.758160  0.041270  0.953700  0.220374
    C   C172  0.735660  0.037030  0.896620  -0.171108
    C   C173  0.587560  0.870870  0.804620  -0.368265
    C   C174  0.616050  0.863040  0.778090  0.170241
    C   C175  0.651550  0.855620  0.753940  -0.089222
    C   C176  0.683570  0.851130  0.741570  -0.049911
    C   C177  0.954070  0.564810  0.269580  -0.333824
    C   C178  0.927580  0.571630  0.218850  0.537271
    C   C179  0.905540  0.543460  0.192920  -0.349736
    C   C180  0.904640  0.510640  0.224360  0.078042
    C   C181  0.929950  0.504180  0.276950  0.329111
    C   C182  0.955630  0.530730  0.296530  -0.300715
    C   C183  0.875630  0.484120  0.204880  0.023699
    C   C184  0.885630  0.452580  0.170100  -0.290738
    C   C185  0.862610  0.422340  0.169940  0.542462
    C   C186  0.829210  0.424090  0.204990  -0.251268
    C   C187  0.815970  0.457620  0.226370  -0.337375
    C   C188  0.839420  0.487500  0.229410  0.405042
    C   C189  0.982940  0.598620  0.004510  -0.145745
    C   C190  0.988790  0.572210  0.052220  0.337026
    C   C191  0.963560  0.543810  0.055590  -0.149438
    C   C192  0.933240  0.541470  0.011490  -0.052184
    C   C193  0.923980  0.571300  0.973370  0.457581
    C   C194  0.948830  0.599960  0.971030  -0.385417
    C   C195  0.917030  0.505850  0.994660  0.052545
    C   C196  0.883380  0.496360  0.022330  -0.337174
    C   C197  0.865450  0.464400  0.002170  0.451942
    C   C198  0.882520  0.440780  0.955630  -0.261532
    C   C199  0.917120  0.449370  0.930920  -0.291274
    C   C200  0.934230  0.482010  0.948670  0.318084
    C   C201  0.050970  0.632140  0.809640  -0.315671
    C   C202  0.054210  0.599130  0.773590  0.437455
    C   C203  0.048940  0.598040  0.704200  -0.453504
    C   C204  0.043050  0.629570  0.669880  0.239757
    C   C205  0.043140  0.662930  0.705330  0.324120
    C   C206  0.046620  0.663830  0.774960  -0.303761
    C   C207  0.034850  0.627180  0.597290  -0.013158
    C   C208  0.998070  0.628390  0.575130  -0.423284
    C   C209  0.989230  0.628420  0.506920  0.576439
    C   C210  0.017720  0.624910  0.459950  -0.389001
    C   C211  0.054500  0.623390  0.482100  -0.298444
    C   C212  0.063440  0.624820  0.550370  0.412245
    C   C213  0.963350  0.995010  0.961750  -0.511309
    C   C214  0.948430  0.961190  0.972880  0.130993
    C   C215  0.910850  0.958110  0.987520  -0.145696
    C   C216  0.888040  0.988400  0.986070  -0.181457
    C   C217  0.902850  0.021980  0.972100  0.337251
    C   C218  0.941060  0.025490  0.964470  0.192161
    C   C219  0.927690  0.809850  0.908110  -0.038056
    C   C220  0.957090  0.818370  0.867130  -0.027621
    C   C221  0.949950  0.822920  0.798880  0.085381
    C   C222  0.913720  0.828080  0.776740  -0.138287
    C   C223  0.884820  0.827160  0.821810  -0.078280
    C   C224  0.891510  0.814230  0.885620  -0.143103
    C   C225  0.069290  0.001040  0.903370  0.188183
    C   C226  0.077950  0.966370  0.879820  -0.013868
    C   C227  0.084550  0.960230  0.811950  -0.029399
    C   C228  0.075950  0.986440  0.767060  -0.228818
    C   C229  0.064860  0.020590  0.789580  -0.095026
    C   C230  0.064020  0.028580  0.858650  -0.151493
    C   C231  0.068030  0.699050  0.016890  -0.318704
    C   C232  0.076680  0.728520  0.037790  0.138756
    C   C233  0.084720  0.764870  0.052830  -0.014162
    C   C234  0.088820  0.796860  0.055450  -0.172710
    C   C235  0.850200  0.986250  0.156420  0.003726
    C   C236  0.858180  0.023090  0.156380  -0.009777
    C   C237  0.895150  0.033870  0.150870  -0.035944
    C   C238  0.923480  0.008440  0.153350  -0.027886
    C   C239  0.915610  0.972320  0.164840  0.318684
    C   C240  0.878460  0.961050  0.163870  -0.090960
    C   C241  0.900360  0.846460  0.382440  -0.216913
    C   C242  0.932950  0.866570  0.379830  0.399890
    C   C243  0.942850  0.889290  0.434830  -0.172671
    C   C244  0.916210  0.898400  0.482090  -0.210124
    C   C245  0.881210  0.882400  0.477920  0.385463
    C   C246  0.874950  0.853760  0.432140  -0.271545
    C   C247  0.055650  0.033410  0.189430  -0.004654
    C   C248  0.079500  0.042460  0.242910  0.014969
    C   C249  0.103200  0.016000  0.267600  -0.051458
    C   C250  0.096580  0.980010  0.250230  -0.231288
    C   C251  0.068060  0.970550  0.205210  0.064080
    C   C252  0.050710  0.997600  0.169230  -0.051613
    C   C253  0.015920  0.677930  0.243740  -0.270617
    C   C254  0.017500  0.706020  0.216370  0.036622
    C   C255  0.018630  0.740760  0.191300  0.063911
    C   C256  0.019620  0.771850  0.177700  -0.227854
    Cd  Cd1   0.995340  0.879240  0.201100  1.421721
    Cd  Cd2   0.991530  0.946790  0.328660  1.039566
    Cd  Cd3   0.037690  0.877210  0.981860  1.397281
    Cd  Cd4   0.006150  0.904360  0.821590  0.832589
    Cd  Cd5   0.789380  0.886320  0.755930  1.392242
    Cd  Cd6   0.848720  0.925250  0.880460  1.025398
    Cd  Cd7   0.792150  0.951460  0.525500  1.429759
    Cd  Cd8   0.818160  0.925270  0.361970  0.937687
    Cd  Cd9   0.773200  0.114480  0.181550  1.450302
    Cd  Cd10  0.808350  0.074920  0.328810  0.996625
    Cd  Cd11  0.834620  0.123860  0.979800  1.368400
    Cd  Cd12  0.821900  0.069880  0.834920  0.820957
    Cd  Cd13  0.026350  0.096440  0.649930  1.404584
    Cd  Cd14  0.983780  0.085110  0.805900  1.038650
    Cd  Cd15  0.044360  0.124410  0.381200  1.399082
    Cd  Cd16  0.990240  0.098880  0.237610  0.974125
    H   H1    0.355810  0.191760  0.960160  0.160851
    H   H2    0.242200  0.135570  0.862310  0.203461
    H   H3    0.292410  0.228490  0.060550  0.151267
    H   H4    0.330900  0.122230  0.185840  0.194262
    H   H5    0.290620  0.262380  0.163120  0.387474
    H   H6    0.304980  0.243950  0.240240  0.323623
    H   H7    0.337350  0.089640  0.083180  0.367468
    H   H8    0.328290  0.109210  0.004740  0.332834
    H   H9    0.215530  0.138360  0.969690  0.386641
    H   H10   0.239740  0.156670  0.041300  0.355277
    H   H11   0.353470  0.180700  0.778460  0.342774
    H   H12   0.379900  0.194670  0.850780  0.387713
    H   H13   0.847950  0.314060  0.628390  0.149391
    H   H14   0.805940  0.421280  0.758340  0.164259
    H   H15   0.760320  0.348470  0.552630  0.155369
    H   H16   0.866180  0.373780  0.408300  0.209185
    H   H17   0.721170  0.345110  0.456340  0.403217
    H   H18   0.736850  0.357970  0.376930  0.354219
    H   H19   0.903460  0.384850  0.505060  0.396448
    H   H20   0.885530  0.383120  0.587050  0.351527
    H   H21   0.784480  0.446300  0.657830  0.389402
    H   H22   0.789590  0.423920  0.578590  0.327320
    H   H23   0.882390  0.321100  0.799640  0.343184
    H   H24   0.877100  0.292930  0.726510  0.369913
    H   H25   0.856080  0.143980  0.725080  0.073852
    H   H26   0.972070  0.204520  0.797620  0.129427
    H   H27   0.890440  0.164690  0.186200  0.231977
    H   H28   0.918560  0.158490  0.427160  0.209695
    H   H29   0.398080  0.030170  0.519870  0.136880
    H   H30   0.532080  0.056410  0.538080  0.159539
    H   H31   0.401660  0.125680  0.559470  0.151127
    H   H32   0.381050  0.106650  0.316220  0.192246
    H   H33   0.364520  0.178280  0.555660  0.365219
    H   H34   0.350000  0.196070  0.478070  0.329517
    H   H35   0.426440  0.061040  0.316130  0.354341
    H   H36   0.450890  0.049120  0.389980  0.305176
    H   H37   0.518880  0.117880  0.520550  0.380729
    H   H38   0.472940  0.133490  0.506170  0.348068
    H   H39   0.457200  0.955190  0.566490  0.330435
    H   H40   0.411030  0.970160  0.551090  0.350752
    H   H41   0.418410  0.944330  0.676770  0.181214
    H   H42   0.481500  0.981670  0.888960  0.158094
    H   H43   0.352300  0.975690  0.739110  0.174286
    H   H44   0.390970  0.095140  0.665030  0.162850
    H   H45   0.289760  0.993970  0.729940  0.411838
    H   H46   0.277000  0.037470  0.703510  0.422410
    H   H47   0.453470  0.075440  0.668370  0.318196
    H   H48   0.465600  0.030800  0.689610  0.312129
    H   H49   0.446580  0.035320  0.890720  0.379068
    H   H50   0.411540  0.043650  0.829740  0.351698
    H   H51   0.468630  0.873590  0.759600  0.359038
    H   H52   0.445170  0.886450  0.685310  0.380631
    H   H53   0.530290  0.973570  0.211350  0.186027
    H   H54   0.553330  0.884130  0.384130  0.174818
    H   H55   0.593520  0.927660  0.142870  0.160864
    H   H56   0.480210  0.877090  0.033760  0.173094
    H   H57   0.617960  0.937310  0.036090  0.387969
    H   H58   0.589820  0.933050  0.962500  0.414774
    H   H59   0.453140  0.873650  0.140220  0.377069
    H   H60   0.477210  0.887210  0.215240  0.312596
    H   H61   0.558880  0.839060  0.298130  0.394899
    H   H62   0.553310  0.848580  0.212040  0.343744
    H   H63   0.548600  0.010750  0.378740  0.318747
    H   H64   0.533740  0.019770  0.295810  0.363990
    H   H65   0.748880  0.945130  0.282320  -0.081635
    H   H66   0.676940  0.054490  0.336140  0.149618
    H   H67   0.875910  0.054510  0.501630  0.088513
    H   H68   0.958750  0.000790  0.333340  0.260027
    H   H69   0.836550  0.001770  0.681750  0.092868
    H   H70   0.970080  0.978630  0.652750  0.100572
    H   H71   0.721250  0.002830  0.812500  0.092170
    H   H72   0.789770  0.013510  0.027640  0.253362
    H   H73   0.885950  0.548470  0.153200  0.119686
    H   H74   0.976070  0.525220  0.334680  0.189213
    H   H75   0.912310  0.450860  0.146900  0.116868
    H   H76   0.788980  0.459490  0.248370  0.171941
    H   H77   0.898080  0.390420  0.112760  0.377302
    H   H78   0.854990  0.369990  0.131200  0.401868
    H   H79   0.800930  0.520640  0.276970  0.373453
    H   H80   0.844470  0.541200  0.263130  0.318901
    H   H81   0.948740  0.468160  0.347160  0.358497
    H   H82   0.908820  0.453760  0.300280  0.298743
    H   H83   0.927250  0.627590  0.229900  0.365389
    H   H84   0.905450  0.609570  0.155750  0.355063
    H   H85   0.969130  0.522100  0.088590  0.084440
    H   H86   0.943110  0.621740  0.938270  0.197492
    H   H87   0.870090  0.514790  0.056810  0.148154
    H   H88   0.930260  0.431050  0.895840  0.169892
    H   H89   0.819670  0.474380  0.061630  0.312474
    H   H90   0.816610  0.434550  0.010080  0.332308
    H   H91   0.979310  0.472570  0.887180  0.361908
    H   H92   0.979470  0.515280  0.929840  0.309745
    H   H93   0.886130  0.593540  0.907100  0.368695
    H   H94   0.872520  0.551630  0.939460  0.335688
    H   H95   0.036780  0.595270  0.094910  0.353261
    H   H96   0.023090  0.553560  0.127980  0.388285
    H   H97   0.049850  0.572610  0.676780  0.161838
    H   H98   0.044860  0.689220  0.802330  0.195357
    H   H99   0.976290  0.630520  0.611160  0.163899
    H   H100  0.076290  0.621000  0.446100  0.164451
    H   H101  0.932630  0.634130  0.521950  0.397422
    H   H102  0.946520  0.637270  0.437540  0.382080
    H   H103  0.120270  0.622270  0.535380  0.385822
    H   H104  0.107080  0.625850  0.620550  0.345385
    H   H105  0.038940  0.718550  0.699640  0.435692
    H   H106  0.038910  0.694550  0.621180  0.390558
    H   H107  0.072090  0.569410  0.854640  0.319826
    H   H108  0.064080  0.544180  0.778520  0.391939
    H   H109  0.992120  0.997550  0.949480  0.090227
    H   H110  0.858770  0.985610  0.993830  -0.107608
    H   H111  0.932900  0.802170  0.958770  0.131328
    H   H112  0.908240  0.834190  0.725340  0.208270
    H   H113  0.065980  0.006460  0.956090  -0.016220
    H   H114  0.078600  0.980420  0.714360  0.140512
    H   H115  0.821880  0.977460  0.157950  0.009366
    H   H116  0.951810  0.017340  0.151650  -0.016129
    H   H117  0.893960  0.826250  0.344150  0.142538
    H   H118  0.922180  0.918940  0.519980  0.218391
    H   H119  0.039830  0.053940  0.165330  -0.052154
    H   H120  0.112380  0.959390  0.274120  0.144927
    N   N1    0.030370  0.645630  0.012620  -0.737359
    N   N2    0.022550  0.612530  0.912000  -0.870950
    N   N3    0.065120  0.659770  0.919720  -0.868174
    N   N4    0.021320  0.648000  0.347460  -0.801550
    N   N5    0.988350  0.594870  0.362170  -0.867475
    N   N6    0.993300  0.617900  0.255570  -0.659528
    N   N7    0.555940  0.879210  0.908220  -0.825095
    N   N8    0.502280  0.913950  0.914300  -0.855091
    N   N9    0.528760  0.900670  0.810750  -0.808594
    N   N10   0.546370  0.981080  0.560880  -0.952159
    N   N11   0.514180  0.969990  0.459980  -1.026031
    N   N12   0.572350  0.944430  0.476970  -0.886560
    N   N13   0.832730  0.347690  0.875270  -0.807680
    N   N14   0.856130  0.405470  0.861880  -0.862626
    N   N15   0.856930  0.380630  0.967570  -0.693248
    N   N16   0.788860  0.335180  0.301750  -0.821749
    N   N17   0.817480  0.391480  0.305490  -0.924490
    N   N18   0.798580  0.365190  0.202710  -0.839318
    N   N19   0.292410  0.098910  0.658740  -0.850248
    N   N20   0.322980  0.112610  0.760320  -0.952441
    N   N21   0.268870  0.143110  0.731990  -0.892374
    N   N22   0.279510  0.183530  0.296630  -0.840536
    N   N23   0.341190  0.165130  0.302580  -0.986008
    N   N24   0.304260  0.163320  0.397070  -0.758485
    N   N25   0.356060  0.182810  0.830160  -0.875853
    N   N26   0.239510  0.149760  0.990650  -0.873642
    N   N27   0.299120  0.240220  0.189560  -0.828253
    N   N28   0.329030  0.111770  0.056490  -0.823562
    N   N29   0.869840  0.316230  0.753220  -0.836156
    N   N30   0.793330  0.423920  0.630060  -0.861654
    N   N31   0.743000  0.351830  0.426000  -0.897363
    N   N32   0.881280  0.379910  0.535830  -0.902087
    N   N33   0.439310  0.975410  0.551980  -0.797172
    N   N34   0.490790  0.112260  0.514680  -0.900270
    N   N35   0.361130  0.174910  0.504190  -0.814167
    N   N36   0.430760  0.064660  0.367360  -0.789211
    N   N37   0.457280  0.893760  0.731240  -0.868783
    N   N38   0.432980  0.027560  0.846370  -0.870240
    N   N39   0.297680  0.019310  0.715090  -0.984788
    N   N40   0.445390  0.050320  0.684080  -0.770928
    N   N41   0.539740  0.001130  0.331880  -0.789808
    N   N42   0.553570  0.857640  0.261620  -0.883578
    N   N43   0.593490  0.928400  0.012940  -0.875620
    N   N44   0.476910  0.884140  0.163560  -0.810880
    N   N45   0.921040  0.605400  0.198890  -0.869676
    N   N46   0.929260  0.472980  0.309740  -0.799962
    N   N47   0.872810  0.391820  0.136710  -0.933177
    N   N48   0.827580  0.518670  0.258500  -0.845768
    N   N49   0.018630  0.573620  0.093920  -0.874788
    N   N50   0.892100  0.571950  0.937020  -0.860733
    N   N51   0.831600  0.457090  0.026320  -0.778372
    N   N52   0.966700  0.490590  0.920360  -0.791308
    N   N53   0.063460  0.568710  0.804900  -0.822923
    N   N54   0.039790  0.694110  0.672960  -0.937661
    N   N55   0.953600  0.633030  0.487070  -0.933025
    N   N56   0.099400  0.624180  0.570370  -0.875806
    O   O1    0.036060  0.828600  0.222060  -0.704023
    O   O2    0.997290  0.827070  0.137620  -0.720113
    O   O3    0.949560  0.915930  0.167430  -0.590939
    O   O4    0.971790  0.964410  0.228310  -0.653463
    O   O5    0.039840  0.923910  0.266650  -0.734573
    O   O6    0.945300  0.843600  0.268040  -0.511908
    O   O7    0.980550  0.887840  0.305650  -0.551411
    O   O8    0.038550  0.917100  0.157090  -0.703476
    O   O9    0.095500  0.843280  0.983390  -0.647644
    O   O10   0.065190  0.854680  0.073780  -0.593254
    O   O11   0.991400  0.915130  0.004860  -0.538211
    O   O12   0.964190  0.911060  0.901310  -0.630427
    O   O13   0.015870  0.848970  0.866260  -0.571782
    O   O14   0.081480  0.935350  0.984180  -0.593302
    O   O15   0.052670  0.908520  0.898930  -0.616637
    O   O16   0.996300  0.831310  0.962740  -0.567494
    O   O17   0.740830  0.847160  0.795270  -0.617050
    O   O18   0.740770  0.864170  0.692790  -0.581958
    O   O19   0.825170  0.925700  0.702920  -0.424717
    O   O20   0.873100  0.923880  0.778800  -0.667819
    O   O21   0.834240  0.866100  0.850980  -0.725967
    O   O22   0.742610  0.939560  0.782620  -0.352231
    O   O23   0.789420  0.922060  0.843630  -0.597193
    O   O24   0.835120  0.843810  0.747480  -0.750594
    O   O25   0.753420  0.910000  0.585020  -0.561169
    O   O26   0.768290  0.962330  0.627860  -0.658377
    O   O27   0.833890  0.992860  0.501440  -0.438446
    O   O28   0.826910  0.983680  0.389210  -0.595982
    O   O29   0.761060  0.932820  0.409820  -0.757999
    O   O30   0.849590  0.912950  0.569190  -0.441227
    O   O31   0.821980  0.910500  0.470810  -0.505461
    O   O32   0.747080  0.981490  0.469530  -0.706175
    O   O33   0.728650  0.162620  0.201250  -0.659345
    O   O34   0.752170  0.152880  0.103620  -0.525295
    O   O35   0.818400  0.075650  0.147240  -0.565857
    O   O36   0.812970  0.039970  0.237140  -0.643123
    O   O37   0.748700  0.082300  0.285680  -0.670102
    O   O38   0.822510  0.166200  0.199960  -0.546974
    O   O39   0.807530  0.125890  0.270640  -0.770759
    O   O40   0.731700  0.068150  0.181550  -0.705323
    O   O41   0.794860  0.176360  0.989860  -0.683297
    O   O42   0.837350  0.166050  0.064610  -0.727788
    O   O43   0.868200  0.075160  0.999950  -0.318665
    O   O44   0.874880  0.058790  0.890200  -0.703615
    O   O45   0.837810  0.130060  0.849590  -0.651980
    O   O46   0.778540  0.088160  0.031560  -0.593065
    O   O47   0.793500  0.092250  0.926820  -0.539390
    O   O48   0.881660  0.146660  0.921610  -0.648974
    O   O49   0.080080  0.135650  0.657380  -0.704731
    O   O50   0.068510  0.103100  0.567160  -0.713896
    O   O51   0.982350  0.053740  0.630060  -0.550182
    O   O52   0.946830  0.072860  0.717580  -0.717275
    O   O53   0.997510  0.135560  0.746050  -0.641372
    O   O54   0.072480  0.044500  0.680880  -0.535732
    O   O55   0.035930  0.074520  0.747950  -0.722738
    O   O56   0.982940  0.141280  0.639570  -0.634681
    O   O57   0.083680  0.177080  0.367750  -0.629564
    O   O58   0.082780  0.149240  0.460970  -0.584886
    O   O59   0.005600  0.083080  0.419050  -0.443432
    O   O60   0.992380  0.058300  0.316180  -0.502584
    O   O61   0.053360  0.101810  0.256940  -0.662365
    O   O62   0.990950  0.171350  0.410860  -0.594637
    O   O63   0.001680  0.143370  0.315200  -0.603283
    O   O64   0.082610  0.079710  0.343230  -0.533094
