# Generated by REPEAT Assigner based on pymatgen
data_DB7-ddmof_20576
_audit_creation_date              2022-05-24
_audit_creation_method            REPEAT_Assigner
_cell_length_a                    24.335760
_cell_length_b                    22.649310
_cell_length_c                    31.521300
_cell_angle_alpha                 104.034030
_cell_angle_beta                  115.933430
_cell_angle_gamma                 111.522220
_cell_volume                      12738.242712
_symmetry_space_group_name_H-M    P1
_symmetry_Int_Tables_number       1
loop_
    _symmetry_equiv_pos_site_id
    _symmetry_equiv_pos_as_xyz
    1  x,y,z
loop_
    _atom_site_type_symbol
    _atom_site_label
    _atom_site_fract_x
    _atom_site_fract_y
    _atom_site_fract_z
    _atom_type_partial_charge
    C   C1    0.412310  0.161720  0.879900  0.107929
    C   C2    0.404400  0.173090  0.836290  -0.204074
    C   C3    0.465420  0.208270  0.836610  -0.199812
    C   C4    0.534500  0.231380  0.880340  0.365369
    C   C5    0.702800  0.181000  0.852590  0.058360
    C   C6    0.626800  0.139760  0.823480  -0.061494
    C   C7    0.590340  0.172780  0.829680  -0.373975
    C   C8    0.630150  0.247430  0.865510  0.506064
    C   C9    0.740080  0.256700  0.879880  -0.051515
    C   C10   0.589280  0.291480  0.549590  0.139803
    C   C11   0.655720  0.299980  0.583790  -0.131827
    C   C12   0.713260  0.332330  0.579930  -0.294156
    C   C13   0.817100  0.242170  0.477490  0.150720
    C   C14   0.869480  0.304050  0.528300  -0.204009
    C   C15   0.781280  0.336310  0.516870  0.329912
    C   C16   0.728000  0.272860  0.466740  -0.170458
    C   C17   0.746990  0.228230  0.445950  -0.233023
    C   C18   0.189940  0.080120  0.916410  0.853415
    C   C19   0.133040  0.225610  0.927740  0.880104
    C   C20   0.880670  0.069290  0.931850  0.888603
    C   C21   0.313310  0.145480  0.512680  0.958167
    C   C22   0.199750  0.255870  0.459770  0.774117
    C   C23   0.959610  0.098320  0.474940  1.125362
    C   C24   0.346050  0.003000  0.992020  -0.090938
    C   C25   0.836110  0.191940  0.457960  0.014426
    C   C26   0.810710  0.124170  0.457210  -0.097552
    C   C27   0.844370  0.086880  0.452360  -0.028753
    C   C28   0.907100  0.119290  0.454100  -0.318166
    C   C29   0.926720  0.181880  0.448030  0.092438
    C   C30   0.890270  0.217360  0.449330  -0.223472
    C   C31   0.748520  0.091010  0.462080  0.223323
    C   C32   0.988260  0.212980  0.442350  -0.076788
    C   C33   0.677170  0.034130  0.406920  -0.160075
    C   C34   0.060120  0.271530  0.496800  0.071100
    C   C35   0.390140  0.177750  0.531800  -0.251751
    C   C36   0.411130  0.139340  0.506280  -0.008860
    C   C37   0.479500  0.176830  0.516210  -0.267132
    C   C38   0.526550  0.251740  0.550310  0.138253
    C   C39   0.508650  0.288870  0.579730  -0.161148
    C   C40   0.441060  0.251010  0.570980  -0.036081
    C   C41   0.360040  0.059320  0.466310  0.209676
    C   C42   0.324200  0.046850  0.408450  -0.094865
    C   C43   0.743120  0.146480  0.869520  0.117009
    C   C44   0.762720  0.115520  0.838510  -0.054191
    C   C45   0.805710  0.087980  0.858600  -0.195750
    C   C46   0.826130  0.087780  0.907720  -0.178261
    C   C47   0.798890  0.111270  0.935440  0.120284
    C   C48   0.762730  0.145570  0.918070  -0.307178
    C   C49   0.742000  0.115380  0.785640  0.152519
    C   C50   0.812040  0.103760  0.985290  0.071634
    C   C51   0.800220  0.183890  0.794390  -0.134437
    C   C52   0.752660  0.094510  0.993810  -0.295399
    C   C53   0.245780  0.099470  0.906010  -0.085116
    C   C54   0.251730  0.046010  0.877470  0.090557
    C   C55   0.305460  0.067340  0.868090  -0.343191
    C   C56   0.352420  0.140550  0.886110  0.129619
    C   C57   0.344480  0.193510  0.912700  -0.059148
    C   C58   0.292320  0.172530  0.923430  -0.194157
    C   C59   0.479950  0.178530  0.920790  -0.175089
    C   C60   0.009020  0.017000  0.097180  0.790975
    C   C61   0.078160  0.014290  0.623690  0.853082
    C   C62   0.056120  0.043820  0.298540  0.541399
    C   C63   0.061660  0.001290  0.661430  -0.159763
    C   C64   0.105650  0.055020  0.716020  -0.029980
    C   C65   0.077040  0.051800  0.746280  -0.164401
    C   C66   0.007280  0.994040  0.723810  -0.008876
    C   C67   0.182120  0.116880  0.741760  0.695655
    C   C68   0.025240  0.029820  0.150710  -0.055304
    C   C69   0.052960  0.046740  0.250990  0.080005
    C   C70   0.704200  0.289780  0.887110  -0.439868
    C   C71   0.540850  0.213410  0.921040  -0.216413
    C   C72   0.580560  0.315330  0.511370  -0.145342
    C   C73   0.957890  0.095770  0.145480  0.606122
    C   C74   0.996190  0.061720  0.172010  0.037552
    C   C75   0.007330  0.065980  0.220610  -0.194883
    C   C76   0.637650  0.346850  0.506900  -0.285026
    C   C77   0.851880  0.351430  0.547450  -0.193644
    C   C78   0.704580  0.355200  0.541110  0.366015
    C   C79   0.605360  0.342910  0.883130  0.291782
    C   C80   0.592490  0.348060  0.836480  -0.206435
    C   C81   0.212680  0.355400  0.436280  -0.255833
    C   C82   0.241230  0.333210  0.474060  -0.000509
    C   C83   0.216970  0.319520  0.921240  -0.214609
    C   C84   0.164510  0.297530  0.931630  -0.116358
    C   C85   0.012910  0.283840  0.906350  -0.019677
    C   C86   0.562120  0.368020  0.622070  0.175361
    C   C87   0.391050  0.272690  0.929810  0.248912
    C   C88   0.455850  0.314720  0.988840  -0.238539
    C   C89   0.652540  0.478010  0.887040  0.002537
    C   C90   0.655610  0.471160  0.930910  -0.143943
    C   C91   0.632890  0.403900  0.929160  -0.174439
    C   C92   0.616990  0.415790  0.838710  -0.119675
    C   C93   0.796840  0.542040  0.482820  0.139986
    C   C94   0.832940  0.564200  0.537990  -0.162134
    C   C95   0.819650  0.512820  0.555470  -0.231969
    C   C96   0.770570  0.438950  0.518040  0.357371
    C   C97   0.733040  0.417050  0.462540  -0.276736
    C   C98   0.746650  0.468410  0.445190  -0.121520
    C   C99   0.282310  0.517950  0.966860  0.090303
    C   C100  0.260750  0.541800  0.928980  -0.091591
    C   C101  0.343260  0.568020  0.020060  -0.111124
    C   C102  0.365040  0.553730  0.509570  0.144036
    C   C103  0.382890  0.609800  0.554100  -0.161732
    C   C104  0.390730  0.570700  0.479320  -0.172983
    C   C105  0.321750  0.477290  0.496120  -0.026607
    C   C106  0.250690  0.427730  0.447850  0.031884
    C   C107  0.308690  0.385450  0.525180  -0.041110
    C   C108  0.350150  0.455360  0.533940  -0.171721
    C   C109  0.212840  0.451560  0.409570  0.078410
    C   C110  0.333840  0.370420  0.572490  0.068297
    C   C111  0.208540  0.424140  0.358220  -0.103471
    C   C112  0.284190  0.360560  0.591070  -0.156557
    C   C113  0.239320  0.440840  0.951400  0.051270
    C   C114  0.254710  0.390870  0.930950  -0.044937
    C   C115  0.147290  0.346720  0.950230  0.051729
    C   C116  0.184310  0.417780  0.959260  -0.236730
    C   C117  0.313160  0.413490  0.921300  0.190377
    C   C118  0.088100  0.323470  0.959140  0.011174
    C   C119  0.387530  0.443020  0.971840  -0.158884
    C   C120  0.813140  0.595890  0.464460  0.033905
    C   C121  0.865600  0.610350  0.453980  -0.236916
    C   C122  0.713950  0.613120  0.461950  0.117231
    C   C123  0.610590  0.376080  0.677070  -0.147999
    C   C124  0.693590  0.550350  0.893890  0.290392
    C   C125  0.769960  0.587970  0.921440  -0.227137
    C   C126  0.656950  0.584180  0.876620  -0.417523
    C   C127  0.810450  0.550450  0.935340  0.168036
    C   C128  0.811290  0.512870  0.888570  -0.075557
    C   C129  0.874630  0.053290  0.569560  0.356089
    C   C130  0.935040  0.070060  0.624050  -0.311958
    C   C131  0.300790  0.615020  0.943940  -0.271763
    C   C132  0.384180  0.640990  0.034820  -0.224733
    C   C133  0.428060  0.642570  0.490420  -0.237838
    C   C134  0.778190  0.634290  0.458690  0.005290
    C   C135  0.893810  0.643040  0.362980  -0.071286
    C   C136  0.363390  0.665030  0.997020  0.343449
    C   C137  0.424120  0.681950  0.567290  -0.228786
    C   C138  0.888730  0.667240  0.442700  0.024556
    C   C139  0.937600  0.675230  0.424060  0.188364
    C   C140  0.736540  0.664250  0.516340  -0.151764
    C   C141  0.808370  0.659540  0.932170  0.060444
    C   C142  0.695730  0.657190  0.889770  0.238581
    C   C143  0.599890  0.679750  0.888870  -0.313369
    C   C144  0.986150  0.983650  0.759780  0.833115
    C   C145  0.201130  0.966120  0.856380  0.266668
    C   C146  0.318760  0.981960  0.024640  0.199284
    C   C147  0.071890  0.011910  0.181620  -0.107671
    C   C148  0.092110  0.027510  0.234050  -0.070856
    C   C149  0.157960  0.027990  0.272150  0.587224
    C   C150  0.963280  0.940920  0.669140  -0.048294
    C   C151  0.993470  0.941750  0.640060  -0.044700
    C   C152  0.883900  0.884200  0.641300  0.546961
    C   C153  0.566080  0.823750  0.987300  0.159362
    C   C154  0.507610  0.751340  0.953290  -0.121317
    C   C155  0.453450  0.723780  0.961300  -0.350428
    C   C156  0.458210  0.768330  0.004480  0.416602
    C   C157  0.517480  0.840540  0.038750  -0.321044
    C   C158  0.571000  0.868120  0.030170  -0.105322
    C   C159  0.268980  0.826480  0.985070  0.129320
    C   C160  0.297760  0.818790  0.031300  -0.096242
    C   C161  0.342810  0.791940  0.041040  -0.278537
    C   C162  0.358970  0.771900  0.004460  0.362372
    C   C163  0.330450  0.780140  0.958200  -0.213022
    C   C164  0.285520  0.807140  0.948580  -0.211490
    C   C165  0.445160  0.698870  0.534760  0.342979
    C   C166  0.644850  0.850530  0.521450  0.202867
    C   C167  0.577430  0.839300  0.485650  -0.231674
    C   C168  0.520670  0.809890  0.490830  -0.198283
    C   C169  0.532610  0.796730  0.534640  0.376455
    C   C170  0.600790  0.809730  0.571110  -0.235396
    C   C171  0.656340  0.835670  0.564190  -0.203084
    C   C172  0.330710  0.843310  0.491890  0.014597
    C   C173  0.405370  0.893650  0.531620  0.033273
    C   C174  0.452670  0.869990  0.548740  -0.398823
    C   C175  0.426310  0.795820  0.525190  0.483848
    C   C176  0.351090  0.745340  0.484910  -0.376513
    C   C177  0.303510  0.769030  0.470350  -0.073616
    C   C178  0.812960  0.764390  0.919160  0.830943
    C   C179  0.793660  0.922480  0.955880  0.541728
    C   C180  0.058520  0.903880  0.910030  1.275400
    C   C181  0.897600  0.783060  0.447940  0.906165
    C   C182  0.868240  0.948090  0.486070  0.717761
    C   C183  0.128570  0.935570  0.430650  0.962646
    C   C184  0.702560  0.874990  0.512820  -0.111105
    C   C185  0.700460  0.826020  0.473560  0.074150
    C   C186  0.755180  0.851440  0.465620  -0.217425
    C   C187  0.812750  0.924310  0.496780  0.031103
    C   C188  0.814920  0.973510  0.536100  -0.077843
    C   C189  0.760080  0.947970  0.544130  -0.125343
    C   C190  0.639900  0.746550  0.439270  0.057898
    C   C191  0.582420  0.730280  0.383640  -0.196750
    C   C192  0.183650  0.915960  0.448380  -0.226189
    C   C193  0.218450  0.919200  0.499460  0.148219
    C   C194  0.268120  0.897460  0.513190  -0.243859
    C   C195  0.280400  0.868480  0.476140  0.068702
    C   C196  0.244460  0.863410  0.424650  -0.035563
    C   C197  0.198120  0.889190  0.411970  -0.163793
    C   C198  0.196660  0.936320  0.536860  -0.142955
    C   C199  0.251290  0.826520  0.381630  0.113027
    C   C200  0.126070  0.870640  0.518100  -0.099656
    C   C201  0.323890  0.873520  0.391410  -0.065449
    C   C202  0.737980  0.899700  0.966850  0.124319
    C   C203  0.738440  0.864230  0.998650  0.094799
    C   C204  0.682440  0.841730  0.005640  -0.365120
    C   C205  0.625340  0.851530  0.980650  0.029865
    C   C206  0.624230  0.885830  0.948590  -0.030458
    C   C207  0.680200  0.908920  0.941640  -0.223796
    C   C208  0.792670  0.842380  0.020410  0.262524
    C   C209  0.561500  0.894330  0.918870  0.149659
    C   C210  0.837280  0.876390  0.081720  -0.236390
    C   C211  0.503270  0.830380  0.862060  -0.104978
    C   C212  0.216240  0.848520  0.972350  0.149575
    C   C213  0.238890  0.921920  0.988320  -0.173774
    C   C214  0.186350  0.939490  0.969510  0.003300
    C   C215  0.111920  0.885200  0.936070  -0.512493
    C   C216  0.089650  0.812800  0.925130  0.263825
    C   C217  0.142250  0.795120  0.942710  -0.319178
    C   C218  0.010820  0.754980  0.897970  -0.098888
    C   C219  0.987170  0.767380  0.935100  -0.099214
    C   C220  0.803500  0.693210  0.449750  -0.203082
    C   C221  0.860890  0.712070  0.444350  -0.153805
    C   C222  0.771880  0.693540  0.914660  -0.394921
    C   C223  0.655010  0.694710  0.875170  0.239738
    C   C224  0.139400  0.929310  0.796870  -0.323113
    F   F1    0.179380  0.171410  0.730420  -0.227138
    F   F2    0.224120  0.145040  0.797030  -0.249177
    F   F3    0.215720  0.093390  0.722530  -0.244086
    F   F4    0.903630  0.048220  0.091440  -0.165027
    F   F5    0.007890  0.157910  0.151440  -0.217964
    F   F6    0.925830  0.114780  0.168610  -0.219622
    F   F7    0.196700  0.082830  0.324090  -0.145039
    F   F8    0.878410  0.826550  0.650840  -0.215753
    F   F9    0.204670  0.039820  0.256820  -0.233127
    F   F10   0.844870  0.858960  0.586300  -0.156078
    F   F11   0.135830  0.961930  0.271460  -0.185921
    F   F12   0.852660  0.912990  0.659900  -0.207850
    H   H1    0.351980  0.158720  0.803940  0.165659
    H   H2    0.459460  0.219400  0.803880  0.116318
    H   H3    0.596950  0.081360  0.800200  0.095025
    H   H4    0.532070  0.139850  0.808830  0.152338
    H   H5    0.798480  0.289300  0.900810  0.115631
    H   H6    0.662500  0.280730  0.612900  0.116610
    H   H7    0.764520  0.338820  0.606630  0.147758
    H   H8    0.923870  0.315450  0.552850  0.143062
    H   H9    0.706840  0.181950  0.406020  0.148268
    H   H10   0.058500  0.030850  0.016720  0.422698
    H   H11   0.135370  0.055950  0.548870  0.459078
    H   H12   0.159940  0.316670  0.398120  0.170363
    H   H13   0.229870  0.281550  0.906870  0.156841
    H   H14   0.203520  0.995290  0.979570  0.112612
    H   H15   0.326990  0.030480  0.052540  -0.018266
    H   H16   0.405590  0.043430  0.019340  0.017832
    H   H17   0.319180  0.027700  0.971560  -0.029228
    H   H18   0.907610  0.267600  0.447530  0.138793
    H   H19   0.741900  0.131970  0.483020  -0.004637
    H   H20   0.664520  0.057850  0.379750  0.031695
    H   H21   0.975820  0.236950  0.415230  0.029754
    H   H22   0.994300  0.169780  0.423340  0.024140
    H   H23   0.103330  0.295370  0.490950  -0.001364
    H   H24   0.076520  0.248250  0.523720  -0.028554
    H   H25   0.494520  0.148150  0.495070  0.110397
    H   H26   0.426710  0.279690  0.592770  0.114472
    H   H27   0.307530  0.085580  0.403460  0.072197
    H   H28   0.362730  0.053550  0.397340  -0.010200
    H   H29   0.825170  0.068830  0.836780  0.152231
    H   H30   0.749320  0.171590  0.942190  0.144241
    H   H31   0.688820  0.110350  0.764330  -0.029973
    H   H32   0.735270  0.067510  0.758330  -0.016976
    H   H33   0.808310  0.232880  0.821490  0.009781
    H   H34   0.783080  0.182900  0.755160  0.033867
    H   H35   0.852520  0.186860  0.812170  0.032050
    H   H36   0.864970  0.152150  0.021500  0.038143
    H   H37   0.814770  0.055370  0.982290  0.082469
    H   H38   0.759250  0.147500  0.011480  0.081951
    H   H39   0.757080  0.072760  0.022380  0.044737
    H   H40   0.697800  0.056220  0.955250  0.068604
    H   H41   0.311060  0.026820  0.847060  0.135912
    H   H42   0.287030  0.213260  0.944610  0.136273
    H   H43   0.486070  0.168200  0.953890  0.129047
    H   H44   0.672410  0.258790  0.443760  0.122528
    H   H45   0.109980  0.092960  0.788000  0.169236
    H   H46   0.825130  0.035180  0.451690  0.092049
    H   H47   0.760070  0.064160  0.487080  -0.076369
    H   H48   0.318020  0.032600  0.472500  -0.047007
    H   H49   0.390910  0.032500  0.472910  -0.022363
    H   H50   0.055270  0.315430  0.516320  -0.021629
    H   H51   0.593700  0.229700  0.954220  0.126166
    H   H52   0.529040  0.308280  0.484470  0.106415
    H   H53   0.980340  0.084240  0.234890  0.163453
    H   H54   0.001460  0.233740  0.877650  -0.013150
    H   H55   0.174760  0.364020  0.335500  0.023260
    H   H56   0.892950  0.399750  0.586280  0.126050
    H   H57   0.339190  0.323310  0.563370  0.029102
    H   H58   0.090150  0.288180  0.978100  0.005433
    H   H59   0.567960  0.300530  0.799820  0.121821
    H   H60   0.735090  0.347710  0.913030  0.199825
    H   H61   0.693000  0.360650  0.432970  0.149463
    H   H62   0.629190  0.363570  0.476510  0.157597
    H   H63   0.299530  0.366120  0.888340  -0.036643
    H   H64   0.970920  0.268470  0.914310  0.014952
    H   H65   0.357580  0.296610  0.924050  -0.012110
    H   H66   0.410750  0.280270  0.904610  -0.044645
    H   H67   0.436910  0.312310  0.015050  0.040514
    H   H68   0.490650  0.292260  0.995820  0.057953
    H   H69   0.851720  0.085960  0.576450  -0.043340
    H   H70   0.898270  0.071860  0.548710  -0.076820
    H   H71   0.642580  0.352010  0.675810  0.020622
    H   H72   0.577150  0.349020  0.689750  0.041230
    H   H73   0.384160  0.405950  0.989430  0.052267
    H   H74   0.680600  0.518790  0.967710  0.108181
    H   H75   0.640600  0.399790  0.964620  0.123376
    H   H76   0.611930  0.420390  0.803940  0.120686
    H   H77   0.871940  0.621120  0.567290  0.127635
    H   H78   0.848850  0.530190  0.598170  0.138849
    H   H79   0.718080  0.451040  0.402490  0.102040
    H   H80   0.213110  0.503610  0.888000  0.100284
    H   H81   0.359280  0.550240  0.049840  0.110466
    H   H82   0.364480  0.597400  0.578330  0.126311
    H   H83   0.381090  0.528280  0.446920  0.153097
    H   H84   0.403520  0.494120  0.571600  0.106867
    H   H85   0.239290  0.511220  0.428280  -0.007577
    H   H86   0.156590  0.429240  0.398350  0.009478
    H   H87   0.263500  0.443090  0.367690  0.012574
    H   H88   0.183160  0.444880  0.332170  0.028860
    H   H89   0.389520  0.416480  0.607400  0.036726
    H   H90   0.278540  0.407740  0.599700  0.061818
    H   H91   0.308130  0.356340  0.628470  0.016731
    H   H92   0.229540  0.310370  0.560190  -0.015027
    H   H93   0.171280  0.455690  0.973470  0.120420
    H   H94   0.316160  0.454590  0.907560  -0.024871
    H   H95   0.408780  0.497160  0.002500  0.023718
    H   H96   0.426550  0.448460  0.961390  0.027922
    H   H97   0.096290  0.371470  0.987570  0.021139
    H   H98   0.009190  0.319410  0.887810  0.015709
    H   H99   0.888710  0.577450  0.454850  0.119982
    H   H100  0.687390  0.556670  0.454870  -0.006956
    H   H101  0.671550  0.614550  0.429450  -0.021983
    H   H102  0.851400  0.584740  0.343070  0.015823
    H   H103  0.532200  0.394110  0.625060  -0.042399
    H   H104  0.596570  0.398580  0.611340  -0.014148
    H   H105  0.648960  0.434410  0.707410  0.027422
    H   H106  0.598220  0.553900  0.853790  0.153124
    H   H107  0.786690  0.510420  0.946550  -0.018664
    H   H108  0.867560  0.590750  0.971180  -0.021252
    H   H109  0.755080  0.471080  0.852260  0.012124
    H   H110  0.841280  0.485990  0.899810  0.016431
    H   H111  0.838940  0.553010  0.878940  0.005749
    H   H112  0.489030  0.372310  0.000040  0.042802
    H   H113  0.975950  0.129290  0.648740  0.047776
    H   H114  0.912930  0.052100  0.646000  0.049862
    H   H115  0.108580  0.955990  0.790440  0.120850
    H   H116  0.283840  0.632750  0.914310  0.140200
    H   H117  0.442870  0.654340  0.464350  0.129035
    H   H118  0.688680  0.646580  0.517800  0.018854
    H   H119  0.966130  0.647270  0.436170  -0.016801
    H   H120  0.550950  0.624070  0.859910  0.057899
    H   H121  0.930610  0.648190  0.350320  0.006604
    H   H122  0.779200  0.663900  0.549540  0.061971
    H   H123  0.408260  0.668270  0.933930  0.171968
    H   H124  0.538770  0.671840  0.359800  0.047399
    H   H125  0.867500  0.672260  0.349680  -0.002797
    H   H126  0.626430  0.676870  0.831410  -0.023944
    H   H127  0.624620  0.687220  0.930410  0.063404
    H   H128  0.962400  0.042480  0.618370  0.128253
    H   H129  0.335050  0.955000  0.961510  0.023229
    H   H130  0.178100  0.956860  0.879410  -0.039738
    H   H131  0.232070  0.939360  0.861250  -0.024753
    H   H132  0.581520  0.944820  0.915960  -0.014461
    H   H133  0.095430  0.989310  0.165920  0.140872
    H   H134  0.191730  0.983690  0.541050  0.053137
    H   H135  0.239680  0.951800  0.578290  0.060428
    H   H136  0.961100  0.899460  0.598780  0.133859
    H   H137  0.352770  0.966590  0.050570  -0.036821
    H   H138  0.431410  0.679230  0.075910  0.129869
    H   H139  0.504200  0.716330  0.920710  0.121860
    H   H140  0.521920  0.875230  0.072120  0.158070
    H   H141  0.616570  0.923860  0.057060  0.107468
    H   H142  0.284630  0.832990  0.059390  0.097424
    H   H143  0.364530  0.785780  0.076700  0.149108
    H   H144  0.341690  0.764070  0.929230  0.145554
    H   H145  0.262560  0.811910  0.912360  0.139220
    H   H146  0.436870  0.724750  0.601370  0.137011
    H   H147  0.568730  0.852500  0.453410  0.157354
    H   H148  0.467760  0.797670  0.461030  0.120033
    H   H149  0.610570  0.799610  0.604770  0.124704
    H   H150  0.708090  0.843760  0.591820  0.158934
    H   H151  0.426650  0.951110  0.549410  0.073038
    H   H152  0.510050  0.909270  0.580050  0.166659
    H   H153  0.329330  0.688040  0.465020  0.191062
    H   H154  0.245540  0.729650  0.441580  0.109028
    H   H155  0.891550  0.955180  0.822940  0.376208
    H   H156  0.961480  0.989740  0.359300  0.360393
    H   H157  0.752670  0.814240  0.434710  0.145664
    H   H158  0.761850  0.985240  0.574500  0.103906
    H   H159  0.613710  0.727700  0.458700  0.014595
    H   H160  0.663170  0.713860  0.433930  0.059281
    H   H161  0.557720  0.762150  0.386830  0.051597
    H   H162  0.606880  0.743180  0.361920  0.032288
    H   H163  0.294990  0.900080  0.552200  0.121560
    H   H164  0.172150  0.887240  0.373150  0.150084
    H   H165  0.080230  0.857660  0.478990  0.100783
    H   H166  0.114400  0.882440  0.548350  0.044769
    H   H167  0.130760  0.822850  0.513610  0.033795
    H   H168  0.207070  0.812760  0.341280  -0.009877
    H   H169  0.243770  0.774020  0.378630  -0.011085
    H   H170  0.329290  0.840700  0.362800  0.004194
    H   H171  0.370620  0.894620  0.432870  0.015601
    H   H172  0.326180  0.919570  0.384280  0.010007
    H   H173  0.681610  0.813410  0.028810  0.161110
    H   H174  0.678130  0.933200  0.915700  0.159953
    H   H175  0.830440  0.855950  0.008940  0.044073
    H   H176  0.762430  0.782510  0.002980  -0.040956
    H   H177  0.856080  0.934300  0.100370  0.021913
    H   H178  0.885480  0.871950  0.097060  0.048963
    H   H179  0.804270  0.847880  0.094140  0.020849
    H   H180  0.536730  0.900030  0.940740  -0.031399
    H   H181  0.526390  0.826400  0.838700  0.015291
    H   H182  0.458260  0.838180  0.841140  0.025673
    H   H183  0.480750  0.778970  0.863330  0.010236
    H   H184  0.125560  0.739470  0.933040  0.118914
    H   H185  0.002690  0.700440  0.886220  0.048043
    H   H186  0.974110  0.752250  0.859920  0.024350
    H   H187  0.021050  0.766020  0.972070  0.020978
    H   H188  0.929550  0.723780  0.913720  0.097530
    H   H189  0.991670  0.820170  0.946560  0.013071
    H   H190  0.632230  0.012790  0.411470  0.029067
    H   H191  0.680510  0.988320  0.388360  0.028025
    H   H192  0.780220  0.725850  0.448890  0.132494
    H   H193  0.757470  0.720230  0.522220  0.009155
    H   H194  0.980810  0.732730  0.443180  -0.065674
    H   H195  0.275000  0.991200  0.380290  0.031675
    H   H196  0.866750  0.688050  0.952740  0.084123
    H   H197  0.692690  0.754290  0.897090  -0.096311
    H   H198  0.581920  0.718060  0.886130  0.097062
    H   H199  0.101620  0.871600  0.782900  0.051031
    H   H200  0.161240  0.931840  0.772470  0.053971
    N   N1    0.599420  0.278840  0.886500  -0.486048
    N   N2    0.764500  0.386440  0.537020  -0.500085
    N   N3    0.403210  0.741530  0.014170  -0.510158
    N   N4    0.476630  0.772590  0.543700  -0.517439
    O   O1    0.975200  0.030330  0.783260  -0.669514
    O   O2    0.208370  0.116590  0.964760  -0.720372
    O   O3    0.120970  0.038840  0.875730  -0.836926
    O   O4    0.038240  0.086760  0.936920  -1.126738
    O   O5    0.082300  0.167620  0.879700  -0.745473
    O   O6    0.162140  0.219860  0.971700  -0.698753
    O   O7    0.881120  0.018740  0.900690  -0.784381
    O   O8    0.020290  0.070920  0.086310  -0.686919
    O   O9    0.925480  0.100060  0.984110  -0.732328
    O   O10   0.005590  0.007780  0.990420  -1.208472
    O   O11   0.039400  0.082690  0.322950  -0.594001
    O   O12   0.298090  0.167170  0.546250  -0.828435
    O   O13   0.261790  0.109940  0.460760  -0.642819
    O   O14   0.110670  0.120700  0.474920  -1.207940
    O   O15   0.128780  0.215490  0.423330  -0.699779
    O   O16   0.234520  0.225780  0.478940  -0.667895
    O   O17   0.956440  0.047310  0.441160  -0.829348
    O   O18   0.087670  0.073450  0.620080  -0.667557
    O   O19   0.998440  0.119450  0.526520  -0.738100
    O   O20   0.082080  0.031460  0.523290  -1.262899
    O   O21   0.014300  0.009610  0.381490  -1.060237
    O   O22   0.943420  0.972110  0.846740  -1.106229
    O   O23   0.973680  0.924950  0.764900  -0.676013
    O   O24   0.009180  0.865730  0.857830  -0.760589
    O   O25   0.068010  0.965120  0.937550  -0.882257
    O   O26   0.880870  0.812380  0.962150  -0.712163
    O   O27   0.783980  0.775670  0.878050  -0.652745
    O   O28   0.772580  0.903450  0.905990  -0.650770
    O   O29   0.863370  0.957780  0.995550  -0.826858
    O   O30   0.912500  0.894310  0.902460  -1.188531
    O   O31   0.984670  0.951790  0.061220  -0.661529
    O   O32   0.073420  0.000970  0.314940  -0.660089
    O   O33   0.073430  0.899540  0.379740  -0.758040
    O   O34   0.141930  0.996620  0.462670  -0.709869
    O   O35   0.967140  0.830220  0.487510  -0.723455
    O   O36   0.859600  0.799340  0.413330  -0.703689
    O   O37   0.846020  0.927100  0.435840  -0.664300
    O   O38   0.934920  0.968210  0.522670  -0.842117
    O   O39   0.987440  0.921320  0.431960  -1.186749
    O   O40   0.071410  0.961500  0.588230  -0.669178
    Zn  Zn1   0.135470  0.125740  0.971870  1.183325
    Zn  Zn2   0.009610  0.068820  0.861450  1.332474
    Zn  Zn3   0.966980  0.052690  0.013240  1.314633
    Zn  Zn4   0.210920  0.171120  0.517000  1.174728
    Zn  Zn5   0.072080  0.110810  0.399940  1.316969
    Zn  Zn6   0.041530  0.069720  0.550490  1.263754
    Zn  Zn7   0.974770  0.990210  0.918910  1.459567
    Zn  Zn8   0.049300  0.020640  0.452730  1.495050
    Zn  Zn9   0.823020  0.872370  0.881730  1.149136
    Zn  Zn10  0.946900  0.912790  0.979810  1.323630
    Zn  Zn11  0.964300  0.906330  0.819950  1.237899
    Zn  Zn12  0.896870  0.894830  0.412910  1.150392
    Zn  Zn13  0.027690  0.932470  0.508000  1.320512
    Zn  Zn14  0.036970  0.950640  0.349020  1.215509
