# Generated by REPEAT Assigner based on pymatgen
data_DB7-ddmof_5462
_audit_creation_date              2022-05-24
_audit_creation_method            REPEAT_Assigner
_cell_length_a                    27.376240
_cell_length_b                    29.157510
_cell_length_c                    35.240040
_cell_angle_alpha                 61.002810
_cell_angle_beta                  118.741440
_cell_angle_gamma                 133.145360
_cell_volume                      17452.499761
_symmetry_space_group_name_H-M    P1
_symmetry_Int_Tables_number       1
loop_
    _symmetry_equiv_pos_site_id
    _symmetry_equiv_pos_as_xyz
    1  x,y,z
loop_
    _atom_site_type_symbol
    _atom_site_label
    _atom_site_fract_x
    _atom_site_fract_y
    _atom_site_fract_z
    _atom_type_partial_charge
    C   C1    0.041390  0.984720  0.001080  0.946011
    C   C2    0.005330  0.990880  0.260410  0.827124
    C   C3    0.014170  0.955550  0.503460  0.739378
    C   C4    0.019220  0.984500  0.953240  -0.144201
    C   C5    0.036880  0.983480  0.891750  0.263547
    C   C6    0.011890  0.976540  0.308820  0.042229
    C   C7    0.023180  0.005490  0.368810  0.258348
    C   C8    0.029580  0.022640  0.325680  -0.307509
    C   C9    0.038210  0.050570  0.384980  -0.254088
    C   C10   0.032140  0.033430  0.428030  -0.229983
    C   C11   0.010700  0.970930  0.455500  0.113960
    C   C12   0.000740  0.942410  0.395820  0.225143
    C   C13   0.081470  0.164720  0.659590  1.025837
    C   C14   0.061100  0.992340  0.934830  -0.276534
    C   C15   0.054420  0.982910  0.830320  -0.118382
    C   C16   0.102510  0.272130  0.626170  0.355854
    C   C17   0.077950  0.989950  0.873730  -0.253854
    C   C18   0.054540  0.156410  0.147990  1.120934
    C   C19   0.103830  0.858710  0.188330  1.270454
    C   C20   0.122840  0.232550  0.660140  -0.312972
    C   C21   0.123900  0.327120  0.633510  -0.331051
    C   C22   0.079050  0.753550  0.729890  0.440694
    C   C23   0.092000  0.761240  0.245840  0.397503
    C   C24   0.106710  0.863770  0.691320  0.907165
    C   C25   0.099800  0.714000  0.744360  -0.399278
    C   C26   0.090850  0.268970  0.116210  -0.319042
    C   C27   0.111920  0.721460  0.258620  -0.351289
    C   C28   0.128130  0.821120  0.723280  -0.299660
    C   C29   0.110460  0.321170  0.126300  0.316191
    C   C30   0.105270  0.224890  0.149530  -0.264471
    C   C31   0.135380  0.828040  0.227330  -0.285457
    C   C32   0.168280  0.344630  0.674060  0.102360
    C   C33   0.171290  0.252750  0.699260  -0.239620
    C   C34   0.151770  0.370910  0.220650  0.362898
    C   C35   0.150340  0.333260  0.168870  0.077693
    C   C36   0.151260  0.240830  0.190320  0.400020
    C   C37   0.163890  0.689170  0.215040  -0.376957
    C   C38   0.176680  0.748810  0.255280  0.056013
    C   C39   0.197040  0.047060  0.100480  1.009731
    C   C40   0.184690  0.398350  0.683820  -0.059612
    C   C41   0.216900  0.461150  0.656060  0.297927
    C   C42   0.169580  0.741630  0.752740  0.105970
    C   C43   0.174480  0.694320  0.713030  -0.332297
    C   C44   0.165870  0.384760  0.181360  0.021040
    C   C45   0.171780  0.420960  0.233920  -0.447789
    C   C46   0.189600  0.707630  0.254380  0.043474
    C   C47   0.190880  0.042990  0.584710  0.988787
    C   C48   0.169970  0.387200  0.721780  -0.323871
    C   C49   0.194590  0.308970  0.706040  0.298166
    C   C50   0.174260  0.295250  0.199780  -0.405472
    C   C51   0.182800  0.657180  0.211900  0.351697
    C   C52   0.204340  0.856080  0.232290  -0.315142
    C   C53   0.192790  0.439170  0.734090  0.367020
    C   C54   0.189000  0.705030  0.753110  0.006972
    C   C55   0.198430  0.847340  0.737590  -0.224750
    C   C56   0.200780  0.667880  0.711510  0.320874
    C   C57   0.216060  0.559860  0.232780  -0.458866
    C   C58   0.194490  0.447850  0.153770  -0.419070
    C   C59   0.204000  0.484670  0.207460  0.043827
    C   C60   0.224680  0.816570  0.245320  0.322961
    C   C61   0.219160  0.807840  0.752060  0.271413
    C   C62   0.210880  0.496840  0.165870  0.332552
    C   C63   0.231620  0.690890  0.291410  0.307409
    C   C64   0.229080  0.502540  0.707880  -0.103584
    C   C65   0.227500  0.686270  0.792270  0.290085
    C   C66   0.227230  0.642800  0.248330  -0.171686
    C   C67   0.717350  0.320660  0.998080  0.384153
    C   C68   0.649200  0.284980  0.000390  -0.388488
    C   C69   0.627200  0.315680  0.001670  0.298273
    C   C70   0.671460  0.382800  0.996530  -0.431693
    C   C71   0.741410  0.416560  0.000520  0.371341
    C   C72   0.763890  0.386370  0.999120  -0.480387
    C   C73   0.747350  0.325220  0.521120  0.377672
    C   C74   0.782250  0.390850  0.518450  -0.502988
    C   C75   0.754510  0.408100  0.529650  0.411699
    C   C76   0.693040  0.359890  0.544000  -0.464138
    C   C77   0.657950  0.295010  0.546220  0.398727
    C   C78   0.685100  0.277540  0.535000  -0.456691
    C   C79   0.257820  0.620410  0.242630  0.416925
    C   C80   0.328760  0.661470  0.244680  -0.435584
    C   C81   0.358280  0.640860  0.239430  0.360896
    C   C82   0.317960  0.577980  0.235000  -0.453880
    C   C83   0.246350  0.539620  0.227640  0.323970
    C   C84   0.276010  0.630660  0.747650  0.353674
    C   C85   0.236810  0.573970  0.733720  -0.476043
    C   C86   0.269580  0.558440  0.726390  0.414484
    C   C87   0.341400  0.598530  0.734130  -0.426679
    C   C88   0.380780  0.655460  0.747460  0.303815
    C   C89   0.348120  0.671020  0.754900  -0.420960
    C   C90   0.942270  0.792750  0.095280  1.032243
    C   C91   0.872360  0.058420  0.078800  0.960880
    C   C92   0.820770  0.889510  0.192710  1.012121
    C   C93   0.933780  0.787520  0.604540  1.138385
    C   C94   0.913800  0.101700  0.568020  1.240952
    C   C95   0.814440  0.921320  0.657430  1.071547
    C   C96   0.969680  0.973840  0.755850  0.903016
    C   C97   0.953820  0.969660  0.927540  -0.099939
    C   C98   0.929820  0.961470  0.884450  -0.269433
    C   C99   0.970880  0.967900  0.866460  0.305646
    C   C100  0.989470  0.969060  0.804420  -0.097485
    C   C101  0.947020  0.959840  0.823170  -0.333804
    C   C102  0.990980  0.914210  0.336430  -0.155974
    C   C103  0.985620  0.897310  0.379640  -0.271445
    C   C104  0.993970  0.925130  0.438850  -0.289274
    C   C105  0.237620  0.512690  0.667610  -0.305490
    C   C106  0.630690  0.817640  0.663330  -0.343554
    C   C107  0.639260  0.806460  0.708910  0.001947
    C   C108  0.704330  0.825840  0.738030  0.361352
    C   C109  0.760460  0.857790  0.721410  -0.332182
    C   C110  0.752910  0.873290  0.675450  -0.210139
    C   C111  0.687520  0.851880  0.646530  0.373077
    C   C112  0.580030  0.774500  0.725950  0.015237
    C   C113  0.541790  0.799600  0.706820  0.328325
    C   C114  0.479080  0.763320  0.717380  -0.330512
    C   C115  0.454820  0.702380  0.747790  -0.064575
    C   C116  0.497490  0.681450  0.771130  0.325166
    C   C117  0.558910  0.716500  0.759400  -0.352242
    C   C118  0.253530  0.659380  0.790850  -0.273060
    C   C119  0.241410  0.651240  0.750300  -0.096950
    C   C120  0.547830  0.732270  0.254570  -0.287492
    C   C121  0.551060  0.751030  0.210380  -0.036144
    C   C122  0.492400  0.740260  0.175590  0.317524
    C   C123  0.430900  0.710010  0.185040  -0.305569
    C   C124  0.426580  0.688050  0.229380  -0.102608
    C   C125  0.485680  0.700560  0.264090  0.328281
    C   C126  0.616350  0.783580  0.200470  0.047008
    C   C127  0.649660  0.847800  0.174920  0.291864
    C   C128  0.713780  0.880100  0.168260  -0.226575
    C   C129  0.746410  0.849450  0.188190  -0.271100
    C   C130  0.711520  0.784060  0.211660  0.361713
    C   C131  0.646540  0.751180  0.217680  -0.302001
    C   C132  0.250070  0.658370  0.288440  -0.283081
    C   C133  0.889510  0.229050  0.494130  -0.346940
    C   C134  0.828240  0.200970  0.503240  0.035431
    C   C135  0.785030  0.133370  0.519120  0.325801
    C   C136  0.807810  0.095960  0.531850  -0.354728
    C   C137  0.874840  0.126190  0.530620  -0.250106
    C   C138  0.911930  0.191310  0.506810  0.390933
    C   C139  0.814840  0.242660  0.502940  0.048920
    C   C140  0.853910  0.276170  0.536610  0.317613
    C   C141  0.834870  0.307560  0.540420  -0.390549
    C   C142  0.776590  0.305660  0.510800  -0.063972
    C   C143  0.740100  0.275560  0.475460  0.336601
    C   C144  0.759090  0.244090  0.471680  -0.380593
    C   C145  0.864480  0.559640  0.567480  -0.333005
    C   C146  0.822080  0.580910  0.543630  -0.057641
    C   C147  0.767170  0.554140  0.508000  0.337345
    C   C148  0.751960  0.503480  0.498670  -0.331003
    C   C149  0.788740  0.476510  0.526350  -0.106759
    C   C150  0.847530  0.507250  0.559200  0.350250
    C   C151  0.833600  0.629150  0.557320  0.113586
    C   C152  0.836890  0.618500  0.601680  0.308343
    C   C153  0.859630  0.668640  0.616260  -0.295211
    C   C154  0.878760  0.729510  0.586680  -0.242330
    C   C155  0.864670  0.736330  0.541020  0.344268
    C   C156  0.844630  0.687320  0.526620  -0.385860
    C   C157  0.467260  0.189850  0.534480  -0.316066
    C   C158  0.465350  0.181260  0.576640  -0.066412
    C   C159  0.525920  0.201520  0.610640  0.384648
    C   C160  0.588480  0.233350  0.601740  -0.331775
    C   C161  0.591180  0.246010  0.558680  -0.158209
    C   C162  0.529920  0.222180  0.525470  0.363855
    C   C163  0.399760  0.150520  0.585140  0.087953
    C   C164  0.366850  0.181320  0.562700  0.315386
    C   C165  0.300120  0.148020  0.565900  -0.279451
    C   C166  0.265930  0.083850  0.591390  -0.217082
    C   C167  0.301130  0.055160  0.616600  0.342675
    C   C168  0.367610  0.088310  0.613300  -0.347334
    C   C169  0.861980  0.199220  0.011370  -0.429257
    C   C170  0.797590  0.172450  0.014930  0.068070
    C   C171  0.752520  0.105230  0.030800  0.300379
    C   C172  0.774450  0.066170  0.047190  -0.271902
    C   C173  0.841790  0.094030  0.048240  -0.319799
    C   C174  0.883900  0.160120  0.027640  0.515829
    C   C175  0.781720  0.215350  0.008440  0.068082
    C   C176  0.811700  0.246700  0.041730  0.302793
    C   C177  0.791820  0.282340  0.037730  -0.364462
    C   C178  0.742030  0.287240  0.000370  -0.106390
    C   C179  0.713410  0.257380  0.966440  0.374050
    C   C180  0.733140  0.221450  0.970560  -0.386986
    C   C181  0.917160  0.646290  0.102790  -0.310653
    C   C182  0.861010  0.624640  0.066420  0.100855
    C   C183  0.822870  0.650140  0.046050  0.285528
    C   C184  0.845610  0.701780  0.058750  -0.230836
    C   C185  0.905000  0.726710  0.092830  -0.285865
    C   C186  0.937940  0.695930  0.116650  0.306688
    C   C187  0.841820  0.574770  0.050180  -0.037856
    C   C188  0.835110  0.585570  0.004980  0.355826
    C   C189  0.808710  0.535160  0.988990  -0.372585
    C   C190  0.791090  0.474530  0.018250  -0.009644
    C   C191  0.806130  0.466620  0.064230  0.343927
    C   C192  0.829750  0.515910  0.079960  -0.395982
    C   C193  0.336280  0.186690  0.038390  -0.347251
    C   C194  0.387350  0.176090  0.063770  0.043387
    C   C195  0.379880  0.130260  0.105060  0.318963
    C   C196  0.320320  0.093120  0.119610  -0.347454
    C   C197  0.266460  0.099500  0.092370  -0.172771
    C   C198  0.275810  0.148300  0.052490  0.360827
    C   C199  0.448420  0.212590  0.047110  0.031658
    C   C200  0.441250  0.205960  0.007400  0.326916
    C   C201  0.499730  0.238550  0.992940  -0.397994
    C   C202  0.565570  0.276980  0.018390  -0.012131
    C   C203  0.572560  0.281910  0.058740  0.292012
    C   C204  0.514310  0.251140  0.072400  -0.340967
    Co  Co1   0.008940  0.064760  0.607500  1.298534
    Co  Co2   0.053400  0.009100  0.080600  1.260033
    Co  Co3   0.083280  0.913100  0.089880  1.355548
    Co  Co4   0.056860  0.009850  0.578930  1.257868
    Co  Co5   0.075180  0.902430  0.592840  1.295123
    Co  Co6   0.993630  0.050830  0.110410  1.290058
    Co  Co7   0.995290  0.888110  0.646990  1.288918
    Co  Co8   0.950660  0.931940  0.183780  1.279773
    Co  Co9   0.999960  0.885400  0.148660  1.313766
    Co  Co10  0.926850  0.031890  0.176650  1.298311
    Co  Co11  0.947450  0.942810  0.675330  1.235789
    Co  Co12  0.937700  0.053290  0.666570  1.321585
    F   F1    0.010890  0.726980  0.718000  -0.198156
    F   F2    0.026850  0.733750  0.245020  -0.211168
    F   F3    0.086680  0.357070  0.095810  -0.197540
    F   F4    0.119730  0.309350  0.246250  -0.201099
    F   F5    0.168390  0.200360  0.222330  -0.201957
    F   F6    0.160630  0.643000  0.172800  -0.214324
    F   F7    0.189280  0.661000  0.671970  -0.203462
    F   F8    0.058090  0.254740  0.587300  -0.146051
    F   F9    0.183110  0.428410  0.772740  -0.222939
    F   F10   0.231090  0.472730  0.619100  -0.190097
    F   F11   0.224550  0.155640  0.026010  -0.197842
    F   F12   0.241000  0.327680  0.744240  -0.195409
    F   F13   0.713660  0.815780  0.782110  -0.209161
    F   F14   0.679450  0.866000  0.602030  -0.198232
    F   F15   0.564110  0.857930  0.676740  -0.203345
    F   F16   0.476890  0.624720  0.802900  -0.201947
    F   F17   0.287090  0.834860  0.761650  -0.195905
    F   F18   0.241070  0.695540  0.831390  -0.198193
    F   F19   0.239220  0.557720  0.138970  -0.207573
    F   F20   0.494530  0.757410  0.132780  -0.196554
    F   F21   0.482200  0.679670  0.307110  -0.213990
    F   F22   0.621300  0.879860  0.158270  -0.192039
    F   F23   0.742180  0.753590  0.230850  -0.197230
    F   F24   0.256090  0.707630  0.329840  -0.204784
    F   F25   0.288970  0.844010  0.244410  -0.198276
    F   F26   0.723790  0.104750  0.525900  -0.198056
    F   F27   0.974010  0.220060  0.501270  -0.221540
    F   F28   0.908320  0.275700  0.566900  -0.199392
    F   F29   0.684610  0.274610  0.445880  -0.201882
    F   F30   0.726020  0.574390  0.484180  -0.198937
    F   F31   0.885100  0.483290  0.585360  -0.220390
    F   F32   0.820840  0.560610  0.631060  -0.195350
    F   F33   0.875740  0.792490  0.511090  -0.165997
    F   F34   0.524520  0.192390  0.651820  -0.221351
    F   F35   0.531690  0.233600  0.483790  -0.199629
    F   F36   0.398570  0.242540  0.536600  -0.199459
    F   F37   0.269510  0.993860  0.642550  -0.183812
    F   F38   0.689190  0.078420  0.033080  -0.199708
    F   F39   0.947840  0.187360  0.026220  -0.244532
    F   F40   0.858650  0.241010  0.078580  -0.193189
    F   F41   0.666090  0.262670  0.929760  -0.227998
    F   F42   0.764690  0.625710  0.013510  -0.185848
    F   F43   0.992660  0.716640  0.151660  -0.148585
    F   F44   0.852600  0.644270  0.976460  -0.202629
    F   F45   0.791990  0.408950  0.093140  -0.208935
    F   F46   0.429050  0.119780  0.130150  -0.195740
    F   F47   0.377790  0.167390  0.983200  -0.201482
    F   F48   0.636030  0.316860  0.084600  -0.171067
    H   H1    0.045860  0.069360  0.440350  0.176804
    H   H2    0.046740  0.071190  0.304950  0.183950
    H   H3    0.055250  0.099130  0.364420  0.159035
    H   H4    0.104220  0.354880  0.608290  0.201240
    H   H5    0.087710  0.990410  0.816390  0.136095
    H   H6    0.061280  0.662620  0.745990  0.201944
    H   H7    0.057320  0.258340  0.084060  0.241810
    H   H8    0.075370  0.669280  0.268080  0.195546
    H   H9    0.111990  0.004540  0.954150  0.186132
    H   H10   0.128570  0.001440  0.893020  0.151617
    H   H11   0.131100  0.701560  0.186380  0.218851
    H   H12   0.160700  0.529770  0.228070  0.188162
    H   H13   0.144840  0.708720  0.682670  0.193600
    H   H14   0.165220  0.410730  0.265730  0.218868
    H   H15   0.181100  0.543280  0.727350  0.191182
    H   H16   0.143050  0.338560  0.742590  0.201662
    H   H17   0.188230  0.223120  0.725350  0.184822
    H   H18   0.208070  0.306080  0.231850  0.218805
    H   H19   0.205470  0.459310  0.123380  0.234863
    H   H20   0.239620  0.908000  0.220390  0.200428
    H   H21   0.614960  0.233030  0.003940  0.173319
    H   H22   0.653970  0.406690  0.996720  0.168059
    H   H23   0.817930  0.412640  0.001460  0.170344
    H   H24   0.830130  0.427940  0.507630  0.203568
    H   H25   0.671880  0.373080  0.552880  0.191117
    H   H26   0.658080  0.227050  0.537150  0.197443
    H   H27   0.360210  0.710080  0.248630  0.185500
    H   H28   0.341380  0.561890  0.231760  0.175861
    H   H29   0.366480  0.586900  0.727750  0.181001
    H   H30   0.378360  0.715580  0.764560  0.180650
    H   H31   0.920810  0.962940  0.941230  0.130172
    H   H32   0.879070  0.949680  0.865220  0.159962
    H   H33   0.896290  0.948030  0.803700  0.196144
    H   H34   0.976770  0.878110  0.324020  0.165925
    H   H35   0.968730  0.848790  0.400240  0.144079
    H   H36   0.976800  0.876570  0.459530  0.188090
    H   H37   0.264480  0.561320  0.646760  0.182112
    H   H38   0.810520  0.873020  0.744060  0.193612
    H   H39   0.580300  0.801160  0.640800  0.209576
    H   H40   0.447430  0.780750  0.699940  0.195625
    H   H41   0.588760  0.697380  0.775110  0.217834
    H   H42   0.236840  0.899160  0.733990  0.208369
    H   H43   0.284430  0.646290  0.820980  0.184610
    H   H44   0.385360  0.700200  0.158100  0.212078
    H   H45   0.593190  0.741430  0.281540  0.186004
    H   H46   0.740120  0.930410  0.149880  0.190145
    H   H47   0.620570  0.701200  0.236760  0.184492
    H   H48   0.284100  0.647290  0.316800  0.187061
    H   H49   0.776970  0.044920  0.548030  0.242577
    H   H50   0.921860  0.280700  0.479960  0.202634
    H   H51   0.863480  0.330730  0.567680  0.225088
    H   H52   0.729160  0.219110  0.445290  0.216952
    H   H53   0.707420  0.481080  0.472570  0.195903
    H   H54   0.908780  0.581810  0.593750  0.200896
    H   H55   0.868000  0.661910  0.651360  0.199729
    H   H56   0.840140  0.695520  0.492000  0.217743
    H   H57   0.635470  0.251270  0.627620  0.195765
    H   H58   0.420390  0.172810  0.508400  0.193086
    H   H59   0.273660  0.170790  0.546630  0.204067
    H   H60   0.393170  0.064690  0.631350  0.205820
    H   H61   0.740620  0.014870  0.061630  0.220909
    H   H62   0.896450  0.250870  0.998160  0.216909
    H   H63   0.814000  0.305010  0.064110  0.226372
    H   H64   0.709930  0.197550  0.944690  0.218465
    H   H65   0.818990  0.724380  0.040720  0.180680
    H   H66   0.945700  0.625670  0.119670  0.179108
    H   H67   0.798630  0.542150  0.953580  0.195828
    H   H68   0.836520  0.507600  0.115070  0.223431
    H   H69   0.314220  0.056570  0.150920  0.239992
    H   H70   0.342540  0.223280  0.007100  0.209687
    H   H71   0.493880  0.234300  0.961890  0.222638
    H   H72   0.520310  0.256390  0.103070  0.205557
    O   O1    0.015760  0.996750  0.015920  -0.593947
    O   O2    0.038980  0.936320  0.105720  -0.760694
    O   O3    0.005240  0.041570  0.233130  -0.700745
    O   O4    0.007200  0.957300  0.246030  -0.661996
    O   O5    0.023570  0.985510  0.637890  -0.879611
    O   O6    0.007290  0.986720  0.516360  -0.615085
    O   O7    0.041970  0.119330  0.688320  -0.741867
    O   O8    0.044380  0.938270  0.609250  -0.726325
    O   O9    0.009930  0.902670  0.530330  -0.699014
    O   O10   0.043200  0.078530  0.067080  -0.577128
    O   O11   0.090740  0.977880  0.027540  -0.830051
    O   O12   0.082450  0.846460  0.150100  -0.914665
    O   O13   0.051260  0.083200  0.563220  -0.584167
    O   O14   0.057210  0.857650  0.696440  -0.617631
    O   O15   0.070090  0.127260  0.141300  -0.704926
    O   O16   0.085390  0.886950  0.192980  -0.788285
    O   O17   0.082900  0.150720  0.629380  -0.637479
    O   O18   0.178480  0.987110  0.115880  -0.770480
    O   O19   0.160500  0.061500  0.100810  -0.696151
    O   O20   0.135050  0.905120  0.656940  -0.672309
    O   O21   0.153050  0.994550  0.566530  -0.808003
    O   O22   0.162300  0.061760  0.589510  -0.648949
    O   O23   0.990520  0.128420  0.145650  -0.835290
    O   O24   0.997470  0.806880  0.616090  -0.852317
    O   O25   0.853960  0.019900  0.117030  -0.718900
    O   O26   0.956640  0.000990  0.154460  -0.734751
    O   O27   0.956490  0.860410  0.194950  -0.586141
    O   O28   0.977890  0.959040  0.121130  -0.883029
    O   O29   0.916730  0.064820  0.067070  -0.633236
    O   O30   0.861400  0.938760  0.210490  -0.827890
    O   O31   0.846280  0.875700  0.179640  -0.627943
    O   O32   0.982110  0.841530  0.067150  -0.733810
    O   O33   0.933590  0.802060  0.124570  -0.638386
    O   O34   0.941960  0.119010  0.605270  -0.872475
    O   O35   0.971760  0.019250  0.651320  -0.715233
    O   O36   0.941370  0.864540  0.685490  -0.596608
    O   O37   0.926670  0.068920  0.563180  -0.787157
    O   O38   0.836980  0.982450  0.642530  -0.776256
    O   O39   0.842860  0.902210  0.652680  -0.718838
    O   O40   0.927410  0.990090  0.729430  -0.796209
    O   O41   0.985830  0.952660  0.740940  -0.597265
    O   O42   0.919870  0.819180  0.609810  -0.699408
