# Generated by REPEAT Assigner based on pymatgen
data_DB7-ddmof_529
_audit_creation_date              2022-05-24
_audit_creation_method            REPEAT_Assigner
_cell_length_a                    17.179120
_cell_length_b                    14.038700
_cell_length_c                    40.164290
_cell_angle_alpha                 90.940690
_cell_angle_beta                  91.375700
_cell_angle_gamma                 111.214260
_cell_volume                      9024.224831
_symmetry_space_group_name_H-M    P1
_symmetry_Int_Tables_number       1
loop_
    _symmetry_equiv_pos_site_id
    _symmetry_equiv_pos_as_xyz
    1  x,y,z
loop_
    _atom_site_type_symbol
    _atom_site_label
    _atom_site_fract_x
    _atom_site_fract_y
    _atom_site_fract_z
    _atom_type_partial_charge
    C   C1    0.546670  0.090240  0.921290  0.878975
    C   C2    0.800540  0.249500  0.853460  0.843043
    C   C3    0.446980  0.178970  0.844070  0.732261
    C   C4    0.750490  0.535060  0.887970  0.993513
    C   C5    0.482120  0.403590  0.951790  0.580470
    C   C6    0.836090  0.451830  0.967280  0.602233
    C   C7    0.803530  0.416000  0.563880  0.815589
    C   C8    0.603490  0.457060  0.495530  0.761112
    C   C9    0.911250  0.353710  0.490170  0.568525
    C   C10   0.538840  0.079210  0.479290  0.852695
    C   C11   0.751140  0.032500  0.562560  0.642645
    C   C12   0.461190  0.138320  0.565880  0.679245
    C   C13   0.866340  0.824700  0.658940  0.659927
    C   C14   0.854950  0.811840  0.779490  0.814623
    C   C15   0.006460  0.684380  0.668230  0.966322
    C   C16   0.155590  0.060800  0.755990  0.679920
    C   C17   0.170750  0.070120  0.644320  0.937781
    C   C18   0.991250  0.188980  0.755320  0.704443
    C   C19   0.407830  0.899990  0.414270  0.818956
    C   C20   0.158920  0.688790  0.337040  0.770126
    C   C21   0.514710  0.797190  0.344990  0.818250
    C   C22   0.257580  0.437170  0.395750  0.795872
    C   C23   0.485860  0.608850  0.456190  0.646770
    C   C24   0.118730  0.524190  0.454460  0.762659
    C   C25   0.174810  0.595490  0.079250  0.919681
    C   C26   0.362960  0.551730  0.989380  0.603479
    C   C27   0.052620  0.622680  0.000430  0.605122
    C   C28   0.408760  0.910140  0.982490  0.771615
    C   C29   0.220320  0.958210  0.071060  0.715368
    C   C30   0.521500  0.880540  0.065300  0.916670
    C   C31   0.120370  0.160530  0.176250  0.704640
    C   C32   0.134410  0.136840  0.298320  0.605776
    C   C33   0.027410  0.350420  0.191450  0.958671
    C   C34   0.812760  0.920720  0.269150  0.947395
    C   C35   0.797190  0.991830  0.159960  0.735818
    C   C36   0.972240  0.792360  0.246520  0.824151
    C   C37   0.050710  0.503320  0.112320  -0.155893
    C   C38   0.137910  0.540840  0.109450  -0.456603
    C   C39   0.188650  0.524060  0.135060  0.477404
    C   C40   0.151200  0.462950  0.161820  -0.272995
    C   C41   0.063730  0.420870  0.163970  -0.107473
    C   C42   0.013220  0.446380  0.139960  0.110461
    C   C43   0.920200  0.415230  0.143740  -0.270701
    C   C44   0.282630  0.568850  0.133610  -0.747559
    C   C45   0.735410  0.926070  0.104080  -0.439318
    C   C46   0.729480  0.971540  0.134770  -0.096128
    C   C47   0.657160  0.992850  0.141710  0.319005
    C   C48   0.589570  0.962150  0.118650  -0.242415
    C   C49   0.594260  0.913360  0.088470  -0.375736
    C   C50   0.668630  0.897970  0.080590  0.504656
    C   C51   0.676570  0.850130  0.047550  -0.505844
    C   C52   0.650790  0.045560  0.174010  -0.342000
    C   C53   0.207340  0.113840  0.095970  -0.202238
    C   C54   0.198990  0.011360  0.099220  -0.224505
    C   C55   0.179720  0.964700  0.130450  0.260984
    C   C56   0.162680  0.019240  0.157130  -0.217569
    C   C57   0.165550  0.119380  0.153090  -0.104049
    C   C58   0.193460  0.169160  0.123010  0.189619
    C   C59   0.204360  0.279800  0.119110  -0.507504
    C   C60   0.175270  0.856430  0.135290  -0.425563
    C   C61   0.662760  0.891410  0.273980  -0.276109
    C   C62   0.739840  0.905270  0.289840  -0.335405
    C   C63   0.743170  0.885880  0.324180  0.367310
    C   C64   0.668920  0.850710  0.341850  -0.373978
    C   C65   0.591460  0.832990  0.325630  0.003952
    C   C66   0.588280  0.853500  0.291390  0.265463
    C   C67   0.505870  0.834770  0.273240  -0.563283
    C   C68   0.825410  0.901610  0.342020  -0.506477
    C   C69   0.293380  0.330290  0.353750  -0.240106
    C   C70   0.241180  0.337950  0.379030  -0.236527
    C   C71   0.164970  0.256200  0.383600  0.256655
    C   C72   0.133370  0.180900  0.358390  -0.279423
    C   C73   0.179350  0.184220  0.329760  -0.107949
    C   C74   0.264260  0.250200  0.329890  0.223483
    C   C75   0.323550  0.236240  0.304910  -0.279788
    C   C76   0.114340  0.253200  0.413930  -0.299479
    C   C77   0.086370  0.726460  0.251230  -0.416542
    C   C78   0.003670  0.713980  0.258020  -0.045238
    C   C79   0.965880  0.654910  0.285400  0.228734
    C   C80   0.016680  0.637130  0.310600  -0.232765
    C   C81   0.103440  0.670980  0.307080  -0.233639
    C   C82   0.136810  0.704260  0.275650  0.386961
    C   C83   0.227060  0.723260  0.268890  -0.420606
    C   C84   0.873490  0.624360  0.290250  -0.373620
    C   C85   0.510530  0.042270  0.445180  -0.386026
    C   C86   0.429750  0.986700  0.438250  -0.197645
    C   C87   0.995400  0.386810  0.475760  -0.018674
    C   C88   0.041120  0.487490  0.473200  -0.254516
    C   C89   0.562370  0.531740  0.492450  -0.236153
    C   C90   0.550780  0.565450  0.462380  -0.135281
    C   C91   0.770110  0.874970  0.581540  -0.135666
    C   C92   0.773820  0.974550  0.588980  -0.136069
    C   C93   0.784400  0.010150  0.622550  0.110040
    C   C94   0.798950  0.948940  0.647560  -0.176227
    C   C95   0.806280  0.855130  0.639280  -0.101068
    C   C96   0.782690  0.813500  0.606740  0.028298
    C   C97   0.778430  0.706970  0.598140  -0.222788
    C   C98   0.781290  0.113320  0.631760  -0.186391
    C   C99   0.396340  0.142250  0.620060  -0.426448
    C   C100  0.386570  0.119860  0.585730  0.040061
    C   C101  0.305950  0.084770  0.570380  0.151875
    C   C102  0.236020  0.069460  0.589910  -0.194476
    C   C103  0.245620  0.090760  0.624340  -0.266803
    C   C104  0.326380  0.127780  0.639580  0.286201
    C   C105  0.338090  0.149100  0.676680  -0.178193
    C   C106  0.294090  0.062760  0.533310  -0.266667
    C   C107  0.933940  0.555910  0.582640  -0.368166
    C   C108  0.852290  0.490990  0.589400  -0.125029
    C   C109  0.820780  0.492190  0.621240  0.131307
    C   C110  0.871580  0.557420  0.646210  -0.095628
    C   C111  0.954240  0.621900  0.639950  -0.291548
    C   C112  0.986080  0.620040  0.607830  0.324048
    C   C113  0.075050  0.684190  0.600210  -0.446768
    C   C114  0.733320  0.422500  0.628930  -0.346005
    C   C115  0.914650  0.490590  0.987330  -0.103170
    C   C116  0.967580  0.588180  0.985120  -0.142610
    C   C117  0.437930  0.957550  0.950510  -0.237242
    C   C118  0.519750  0.008930  0.946010  -0.319168
    C   C119  0.415620  0.421770  0.970050  -0.021494
    C   C120  0.396030  0.503820  0.963440  -0.323000
    C   C121  0.943930  0.266570  0.837170  -0.224540
    C   C122  0.866140  0.272260  0.828450  -0.167679
    C   C123  0.849690  0.292200  0.795150  0.287856
    C   C124  0.905180  0.288640  0.770400  -0.363120
    C   C125  0.973760  0.260540  0.778440  -0.090334
    C   C126  0.999390  0.264140  0.812280  0.243006
    C   C127  0.080440  0.251750  0.821870  -0.282588
    C   C128  0.769750  0.307210  0.785280  -0.298840
    C   C129  0.294450  0.183620  0.775180  -0.083460
    C   C130  0.229230  0.089390  0.779070  -0.140954
    C   C131  0.237190  0.022110  0.803610  0.084624
    C   C132  0.309560  0.051760  0.824410  -0.169548
    C   C133  0.374670  0.146050  0.820370  -0.141457
    C   C134  0.368010  0.211100  0.794930  0.138310
    C   C135  0.438570  0.310670  0.789050  -0.396795
    C   C136  0.169250  0.919150  0.807760  -0.224055
    C   C137  0.818670  0.583480  0.833960  0.063142
    C   C138  0.780840  0.609940  0.861320  -0.545587
    C   C139  0.776120  0.708770  0.863470  0.447236
    C   C140  0.800210  0.773830  0.836320  -0.380740
    C   C141  0.834880  0.745140  0.808440  -0.027222
    C   C142  0.848760  0.651720  0.808180  0.025249
    C   C143  0.895320  0.623970  0.780560  -0.152390
    C   C144  0.747630  0.746450  0.894600  -0.402047
    H   H1    0.656530  0.346770  0.856690  0.354399
    H   H2    0.626830  0.287850  0.956290  0.282858
    H   H3    0.685010  0.248580  0.473270  0.291803
    H   H4    0.669350  0.209340  0.573990  0.349689
    H   H5    0.043360  0.849210  0.738600  0.377361
    H   H6    0.964530  0.030400  0.680780  0.311788
    H   H7    0.316960  0.618740  0.352110  0.373930
    H   H8    0.323040  0.727520  0.447830  0.320666
    H   H9    0.265710  0.714580  0.981360  0.342204
    H   H10   0.315120  0.794350  0.080350  0.290317
    H   H11   0.967210  0.179500  0.256670  0.357114
    H   H12   0.001310  0.980100  0.194820  0.304472
    H   H13   0.011890  0.518230  0.092930  0.213440
    H   H14   0.190270  0.445990  0.180640  0.129833
    H   H15   0.894350  0.461810  0.127990  0.038515
    H   H16   0.905620  0.427030  0.169920  0.107861
    H   H17   0.888450  0.333730  0.135960  0.118826
    H   H18   0.303770  0.651060  0.127520  0.167950
    H   H19   0.303980  0.527040  0.114350  0.189965
    H   H20   0.312920  0.563300  0.157880  0.205550
    H   H21   0.791580  0.911160  0.098700  0.184682
    H   H22   0.532850  0.975430  0.124310  0.065708
    H   H23   0.742280  0.858340  0.043180  0.117202
    H   H24   0.655890  0.887710  0.026810  0.158837
    H   H25   0.637710  0.767390  0.047030  0.137208
    H   H26   0.708800  0.112880  0.179370  0.084168
    H   H27   0.640660  0.991320  0.194690  0.122789
    H   H28   0.597950  0.073440  0.172980  0.099834
    H   H29   0.224700  0.150580  0.072310  0.204030
    H   H30   0.143450  0.982120  0.180610  0.098161
    H   H31   0.241440  0.312650  0.097010  0.129802
    H   H32   0.238250  0.325540  0.141320  0.173853
    H   H33   0.142280  0.286850  0.116090  0.198390
    H   H34   0.232390  0.846560  0.126090  0.062459
    H   H35   0.119480  0.802200  0.121610  0.112162
    H   H36   0.170480  0.836470  0.162010  0.152056
    H   H37   0.660450  0.906100  0.247620  0.186869
    H   H38   0.671390  0.837070  0.368280  0.225811
    H   H39   0.512800  0.837640  0.245800  0.187462
    H   H40   0.480800  0.894110  0.280920  0.109989
    H   H41   0.460100  0.758010  0.278880  0.092831
    H   H42   0.866070  0.983660  0.341920  0.155801
    H   H43   0.857360  0.855320  0.329600  0.191065
    H   H44   0.816740  0.878230  0.368380  0.105799
    H   H45   0.354870  0.388840  0.351710  0.139217
    H   H46   0.070880  0.124350  0.360040  0.190307
    H   H47   0.387640  0.259310  0.316170  0.084727
    H   H48   0.325490  0.284360  0.283060  0.066856
    H   H49   0.304370  0.154890  0.296580  0.131015
    H   H50   0.076550  0.301930  0.410220  0.117677
    H   H51   0.155900  0.280580  0.436430  0.145045
    H   H52   0.071420  0.173980  0.418540  0.066359
    H   H53   0.114040  0.764180  0.228740  0.172389
    H   H54   0.989540  0.604170  0.333760  0.195641
    H   H55   0.235640  0.714120  0.241840  0.163955
    H   H56   0.248490  0.667890  0.282140  0.054618
    H   H57   0.266550  0.802190  0.277210  0.043036
    H   H58   0.838880  0.610020  0.265840  0.108852
    H   H59   0.861080  0.686180  0.304120  0.122661
    H   H60   0.849430  0.552990  0.304540  0.092325
    H   H61   0.557380  0.039270  0.427890  0.201607
    H   H62   0.381660  0.994350  0.454000  0.149995
    H   H63   0.018800  0.329640  0.466350  0.117847
    H   H64   0.016780  0.544180  0.482280  0.116151
    H   H65   0.529020  0.545040  0.513610  0.163806
    H   H66   0.586370  0.555360  0.441480  0.140121
    H   H67   0.757080  0.845100  0.556110  0.187356
    H   H68   0.811640  0.978220  0.673060  0.104408
    H   H69   0.738520  0.675770  0.575410  0.036999
    H   H70   0.750890  0.655010  0.618780  0.154726
    H   H71   0.842210  0.708050  0.593630  0.122924
    H   H72   0.721270  0.118100  0.622680  0.006864
    H   H73   0.833960  0.174610  0.620500  0.033279
    H   H74   0.786130  0.127290  0.659180  0.099271
    H   H75   0.458480  0.170500  0.631620  0.155309
    H   H76   0.173930  0.041150  0.578300  0.219273
    H   H77   0.405140  0.177880  0.684680  0.080779
    H   H78   0.305860  0.077800  0.690170  0.004042
    H   H79   0.312120  0.207950  0.683960  0.035558
    H   H80   0.309460  0.994490  0.526910  0.104495
    H   H81   0.335070  0.129270  0.519530  0.130695
    H   H82   0.228630  0.047520  0.524700  0.023882
    H   H83   0.957660  0.554510  0.557940  0.258915
    H   H84   0.846830  0.557420  0.670760  0.075840
    H   H85   0.092890  0.662330  0.575630  0.085430
    H   H86   0.118930  0.673510  0.619250  0.133547
    H   H87   0.082400  0.766020  0.599490  0.165791
    H   H88   0.728880  0.341620  0.627440  0.087442
    H   H89   0.687700  0.433600  0.610790  0.074480
    H   H90   0.715560  0.438170  0.654280  0.124917
    H   H91   0.933350  0.436310  0.001280  0.110270
    H   H92   0.948910  0.642280  0.971040  0.174205
    H   H93   0.391990  0.967310  0.933170  0.169031
    H   H94   0.566390  0.996660  0.962360  0.185050
    H   H95   0.389500  0.375230  0.991290  0.131105
    H   H96   0.420160  0.547360  0.941390  0.208385
    H   H97   0.959260  0.258080  0.863030  0.164708
    H   H98   0.888810  0.294000  0.744430  0.172307
    H   H99   0.101720  0.282540  0.847510  0.033462
    H   H100  0.130300  0.294210  0.804760  0.115078
    H   H101  0.071990  0.169510  0.820850  0.136044
    H   H102  0.750760  0.349820  0.805010  0.084785
    H   H103  0.719200  0.231620  0.780760  0.005382
    H   H104  0.777530  0.351890  0.762200  0.121678
    H   H105  0.288180  0.235410  0.756460  0.126916
    H   H106  0.314820  0.001940  0.843990  0.186555
    H   H107  0.430690  0.342190  0.764540  0.131127
    H   H108  0.499280  0.299250  0.789130  0.070837
    H   H109  0.440470  0.367670  0.808850  0.111748
    H   H110  0.153610  0.876370  0.783530  0.072177
    H   H111  0.112620  0.929250  0.817410  0.072801
    H   H112  0.188970  0.871850  0.825580  0.059487
    H   H113  0.826180  0.510110  0.833030  0.002060
    H   H114  0.792250  0.847030  0.836970  0.204424
    H   H115  0.918850  0.563290  0.788220  0.070507
    H   H116  0.950510  0.691200  0.773960  0.070535
    H   H117  0.852900  0.594850  0.758400  0.013106
    H   H118  0.777170  0.727370  0.917160  0.127087
    H   H119  0.678580  0.711680  0.895790  0.118715
    H   H120  0.765590  0.830880  0.894930  0.090926
    Ni  Ni1   0.735090  0.327280  0.911310  1.164247
    Ni  Ni2   0.546620  0.296670  0.901340  1.171849
    Ni  Ni3   0.612360  0.155940  0.854920  1.083284
    Ni  Ni4   0.670930  0.478190  0.952010  1.015727
    Ni  Ni5   0.599690  0.262290  0.525480  1.142101
    Ni  Ni6   0.764650  0.216330  0.524220  1.106273
    Ni  Ni7   0.769650  0.427320  0.492810  1.032482
    Ni  Ni8   0.583750  0.040580  0.547490  1.054583
    Ni  Ni9   0.968370  0.976390  0.740380  1.157963
    Ni  Ni10  0.044040  0.903530  0.679230  1.181365
    Ni  Ni11  0.904600  0.725620  0.720100  1.165969
    Ni  Ni12  0.100340  0.156970  0.701200  1.138977
    Ni  Ni13  0.222810  0.633870  0.400010  1.184907
    Ni  Ni14  0.415850  0.693780  0.401370  1.185908
    Ni  Ni15  0.342000  0.805280  0.348470  1.080703
    Ni  Ni16  0.298750  0.545240  0.460500  1.056857
    Ni  Ni17  0.374960  0.735460  0.029960  1.136421
    Ni  Ni18  0.204700  0.771020  0.032170  1.140544
    Ni  Ni19  0.194280  0.547740  0.009210  0.976867
    Ni  Ni20  0.385950  0.959760  0.051710  1.015202
    Ni  Ni21  0.993950  0.012240  0.255120  1.123941
    Ni  Ni22  0.948410  0.128520  0.196730  1.162856
    Ni  Ni23  0.112730  0.262270  0.241940  1.095399
    Ni  Ni24  0.860100  0.862280  0.203150  1.083734
    O   O1    0.643770  0.295080  0.874230  -1.135698
    O   O2    0.820400  0.294400  0.883010  -0.644043
    O   O3    0.735070  0.164120  0.849810  -0.634674
    O   O4    0.791050  0.474420  0.895170  -0.518638
    O   O5    0.797530  0.515710  0.959740  -0.702359
    O   O6    0.606590  0.093710  0.901010  -0.643763
    O   O7    0.458750  0.259310  0.863610  -0.513943
    O   O8    0.639440  0.334700  0.937340  -0.862249
    O   O9    0.819000  0.365110  0.950290  -0.559504
    O   O10   0.463280  0.319550  0.933410  -0.590498
    O   O11   0.551200  0.481840  0.946860  -0.617595
    O   O12   0.685640  0.531540  0.904940  -0.596944
    O   O13   0.500910  0.146730  0.916070  -0.521360
    O   O14   0.485190  0.114950  0.851070  -0.708354
    O   O15   0.700160  0.282190  0.495570  -0.850351
    O   O16   0.556290  0.364730  0.503750  -0.599432
    O   O17   0.670690  0.471010  0.478250  -0.661138
    O   O18   0.520760  0.154570  0.492380  -0.465528
    O   O19   0.471500  0.059900  0.550420  -0.732604
    O   O20   0.756120  0.442610  0.542550  -0.703311
    O   O21   0.872000  0.257010  0.497370  -0.621017
    O   O22   0.657950  0.184600  0.550500  -0.966398
    O   O23   0.503400  0.232470  0.557020  -0.598898
    O   O24   0.804240  0.122640  0.554000  -0.458151
    O   O25   0.681650  0.988230  0.545020  -0.657408
    O   O26   0.579160  0.033260  0.496880  -0.589212
    O   O27   0.824400  0.335380  0.557850  -0.463633
    O   O28   0.885150  0.423730  0.502420  -0.633187
    O   O29   0.998630  0.856840  0.724150  -1.061124
    O   O30   0.913230  0.903080  0.782410  -0.641081
    O   O31   0.827860  0.772790  0.749740  -0.752639
    O   O32   0.079990  0.036300  0.768230  -0.413317
    O   O33   0.068560  0.208380  0.745500  -0.777333
    O   O34   0.839080  0.745630  0.678440  -0.602982
    O   O35   0.064610  0.775220  0.663290  -0.708809
    O   O36   0.010060  0.023580  0.694910  -0.942712
    O   O37   0.935840  0.096140  0.753000  -0.588442
    O   O38   0.110600  0.980300  0.640220  -0.683869
    O   O39   0.153400  0.149000  0.655420  -0.727537
    O   O40   0.168080  0.085130  0.724670  -0.630880
    O   O41   0.942050  0.853700  0.648320  -0.441123
    O   O42   0.979560  0.660970  0.698400  -0.811984
    O   O43   0.321310  0.672880  0.368960  -1.049957
    O   O44   0.140030  0.621550  0.360840  -0.616563
    O   O45   0.215490  0.780520  0.342900  -0.603454
    O   O46   0.201440  0.480690  0.391930  -0.548198
    O   O47   0.171270  0.475140  0.455890  -0.722015
    O   O48   0.345630  0.883020  0.392580  -0.659238
    O   O49   0.505570  0.724360  0.366650  -0.761286
    O   O50   0.318830  0.667510  0.433620  -0.942327
    O   O51   0.128210  0.596200  0.432710  -0.616061
    O   O52   0.502100  0.685170  0.435940  -0.521088
    O   O53   0.423340  0.589160  0.476580  -0.636034
    O   O54   0.314980  0.467330  0.419890  -0.617852
    O   O55   0.457240  0.847670  0.412280  -0.507467
    O   O56   0.469860  0.856450  0.347130  -0.640785
    O   O57   0.261280  0.693980  0.004900  -0.951762
    O   O58   0.414610  0.635100  0.004350  -0.497695
    O   O59   0.293260  0.497380  0.003510  -0.597482
    O   O60   0.433870  0.837980  0.993630  -0.552518
    O   O61   0.501220  0.949980  0.049440  -0.669964
    O   O62   0.215420  0.555530  0.059570  -0.569341
    O   O63   0.093310  0.721180  0.005980  -0.617721
    O   O64   0.318940  0.813780  0.056700  -0.929021
    O   O65   0.484470  0.783140  0.057130  -0.641672
    O   O66   0.166490  0.870280  0.059650  -0.477919
    O   O67   0.285730  0.007370  0.053850  -0.679466
    O   O68   0.367680  0.950490  0.001540  -0.591052
    O   O69   0.149480  0.668050  0.068620  -0.491432
    O   O70   0.078770  0.555440  0.014890  -0.632696
    O   O71   0.002390  0.155540  0.242060  -0.903569
    O   O72   0.059360  0.065400  0.299080  -0.529076
    O   O73   0.164810  0.174780  0.269580  -0.701595
    O   O74   0.882190  0.999510  0.275480  -0.614154
    O   O75   0.932580  0.780850  0.217010  -0.720822
    O   O76   0.163180  0.226130  0.199760  -0.582676
    O   O77   0.954630  0.273380  0.187010  -0.710661
    O   O78   0.955910  0.989700  0.207460  -0.902070
    O   O79   0.974590  0.865530  0.268040  -0.665887
    O   O80   0.867510  0.070300  0.156630  -0.540623
    O   O81   0.783170  0.939410  0.187580  -0.802229
    O   O82   0.812810  0.844720  0.249770  -0.597026
    O   O83   0.046790  0.158340  0.166300  -0.578922
    O   O84   0.069410  0.365600  0.220440  -0.794483
