# Generated by REPEAT Assigner based on pymatgen
data_DB7-ddmof_4010
_audit_creation_date              2022-05-24
_audit_creation_method            REPEAT_Assigner
_cell_length_a                    20.837970
_cell_length_b                    21.443340
_cell_length_c                    31.421820
_cell_angle_alpha                 60.820220
_cell_angle_beta                  118.873270
_cell_angle_gamma                 133.251000
_cell_volume                      8680.763236
_symmetry_space_group_name_H-M    P1
_symmetry_Int_Tables_number       1
loop_
    _symmetry_equiv_pos_site_id
    _symmetry_equiv_pos_as_xyz
    1  x,y,z
loop_
    _atom_site_type_symbol
    _atom_site_label
    _atom_site_fract_x
    _atom_site_fract_y
    _atom_site_fract_z
    _atom_type_partial_charge
    C   C1    0.088130  0.235820  0.130510  1.121077
    C   C2    0.033920  0.010360  0.268430  0.911796
    C   C3    0.096900  0.208470  0.665800  1.120371
    C   C4    0.066320  0.993370  0.894290  -0.523539
    C   C5    0.054850  0.988170  0.847480  0.527001
    C   C6    0.069540  0.959780  0.409980  -0.163347
    C   C7    0.072500  0.966280  0.363820  0.394883
    C   C8    0.015450  0.975910  0.411680  -0.338403
    C   C9    0.021930  0.990050  0.318390  -0.269910
    C   C10   0.003500  0.935350  0.966920  1.004669
    C   C11   0.120700  0.353280  0.621770  -0.240813
    C   C12   0.111810  0.689620  0.695010  0.485605
    C   C13   0.139790  0.428830  0.624000  0.496360
    C   C14   0.000530  0.952120  0.461440  0.993220
    C   C15   0.144920  0.301210  0.664820  -0.300901
    C   C16   0.141820  0.648760  0.693180  -0.278919
    C   C17   0.149500  0.393090  0.096740  -0.183440
    C   C18   0.949710  0.950360  0.763890  1.018952
    C   C19   0.967290  0.933970  0.819500  -0.215957
    C   C20   0.183940  0.853800  0.170530  1.030800
    C   C21   0.147670  0.839940  0.667650  1.115662
    C   C22   0.174370  0.778550  0.698340  -0.266936
    C   C23   0.155330  0.326500  0.136700  -0.358318
    C   C24   0.196350  0.338710  0.185730  0.478529
    C   C25   0.155040  0.706790  0.200110  -0.263985
    C   C26   0.217220  0.797870  0.197640  -0.266527
    C   C27   0.723580  0.276620  0.037070  0.876141
    C   C28   0.606620  0.264560  0.043180  1.049126
    C   C29   0.757510  0.384840  0.063360  1.046095
    C   C30   0.705640  0.283630  0.523250  0.853439
    C   C31   0.728070  0.391010  0.543650  1.018749
    C   C32   0.583220  0.258800  0.532650  1.084996
    C   C33   0.303420  0.662490  0.198100  0.859344
    C   C34   0.270980  0.563540  0.164460  0.978580
    C   C35   0.421860  0.675320  0.193110  1.005245
    C   C36   0.266450  0.660190  0.687450  0.906273
    C   C37   0.375330  0.692830  0.659280  1.155132
    C   C38   0.240390  0.549360  0.668320  1.101122
    C   C39   0.240520  0.083030  0.040990  0.996303
    C   C40   0.945640  0.715720  0.098070  1.251245
    C   C41   0.847200  0.089030  0.067540  1.035905
    C   C42   0.794380  0.873950  0.191750  0.763147
    C   C43   0.228990  0.074890  0.548670  1.190490
    C   C44   0.913940  0.712930  0.587610  1.073238
    C   C45   0.886230  0.151830  0.560850  1.124864
    C   C46   0.739570  0.883270  0.651920  1.019542
    C   C47   0.892530  0.885640  0.839550  -0.440968
    C   C48   0.903560  0.896440  0.884000  0.463347
    C   C49   0.990690  0.948470  0.912620  -0.112333
    C   C50   0.968570  0.007070  0.320080  -0.256679
    C   C51   0.965360  0.000240  0.366230  0.449183
    C   C52   0.194280  0.328610  0.710160  0.446035
    C   C53   0.212040  0.403250  0.712560  -0.277945
    C   C54   0.188690  0.455860  0.669460  -0.303293
    C   C55   0.534750  0.748320  0.701260  -0.311097
    C   C56   0.470150  0.749110  0.656630  -0.281882
    C   C57   0.492320  0.786250  0.610030  0.412815
    C   C58   0.578340  0.820610  0.609150  -0.203998
    C   C59   0.643590  0.821690  0.653840  -0.345353
    C   C60   0.619740  0.780550  0.700260  0.464379
    C   C61   0.267150  0.814980  0.714610  -0.383903
    C   C62   0.234970  0.690830  0.702350  -0.303427
    C   C63   0.297460  0.769090  0.719680  0.566358
    C   C64   0.216380  0.408750  0.195110  -0.272565
    C   C65   0.210070  0.475210  0.155420  -0.315444
    C   C66   0.174360  0.466220  0.105750  0.452068
    C   C67   0.568730  0.816930  0.178430  -0.290736
    C   C68   0.518820  0.725500  0.196870  -0.301283
    C   C69   0.558220  0.682010  0.211710  0.498358
    C   C70   0.644900  0.731020  0.204460  -0.349767
    C   C71   0.696920  0.823400  0.188480  -0.087884
    C   C72   0.658700  0.866930  0.176910  0.362173
    C   C73   0.337800  0.792630  0.208620  -0.214533
    C   C74   0.274280  0.703920  0.205390  -0.309582
    C   C75   0.183700  0.658340  0.206580  0.531328
    C   C76   0.310370  0.838280  0.207110  0.342076
    C   C77   0.694800  0.159170  0.523050  -0.257804
    C   C78   0.742340  0.250630  0.514820  -0.288819
    C   C79   0.826930  0.308690  0.501740  0.519394
    C   C80   0.871000  0.274260  0.509110  -0.277422
    C   C81   0.828690  0.182670  0.525250  -0.330013
    C   C82   0.735940  0.125600  0.525410  0.450847
    C   C83   0.795270  0.475960  0.603060  -0.303878
    C   C84   0.786530  0.476910  0.555540  -0.316409
    C   C85   0.806120  0.554410  0.516310  0.515596
    C   C86   0.832960  0.628400  0.525360  -0.320121
    C   C87   0.844570  0.628030  0.573350  -0.315886
    C   C88   0.817310  0.548380  0.611040  0.534008
    C   C89   0.428820  0.219380  0.494960  -0.270247
    C   C90   0.488430  0.201410  0.535510  -0.354301
    C   C91   0.465770  0.150580  0.582710  0.585536
    C   C92   0.385850  0.121900  0.588790  -0.401947
    C   C93   0.325220  0.137970  0.547850  -0.269953
    C   C94   0.349430  0.191270  0.501220  0.470718
    C   C95   0.689930  0.145660  0.028000  -0.166292
    C   C96   0.752530  0.235330  0.029360  -0.411270
    C   C97   0.841960  0.282030  0.025770  0.635179
    C   C98   0.871520  0.234280  0.032370  -0.415142
    C   C99   0.811050  0.142370  0.037520  -0.175916
    C   C100  0.718000  0.100160  0.030040  0.336533
    C   C101  0.881350  0.557070  0.130850  -0.248575
    C   C102  0.879160  0.625320  0.090610  -0.330868
    C   C103  0.841520  0.614380  0.041370  0.446878
    C   C104  0.818670  0.542120  0.032670  -0.262980
    C   C105  0.820320  0.473580  0.072700  -0.332812
    C   C106  0.854040  0.482220  0.122340  0.489559
    C   C107  0.363630  0.187790  0.996760  -0.232500
    C   C108  0.337650  0.145560  0.042240  -0.332317
    C   C109  0.401330  0.143910  0.087900  0.516206
    C   C110  0.486110  0.175550  0.087070  -0.339126
    C   C111  0.510940  0.214660  0.041580  -0.268196
    C   C112  0.449490  0.221880  0.995890  0.457563
    Co  Co1   0.065210  0.015950  0.051250  1.290056
    Co  Co2   0.109740  0.887860  0.062580  1.269990
    Co  Co3   0.055590  0.020100  0.551060  1.308979
    Co  Co4   0.001160  0.089870  0.595390  1.304352
    Co  Co5   0.084630  0.883410  0.558730  1.242257
    Co  Co6   0.022150  0.860460  0.139000  1.330906
    Co  Co7   0.005750  0.083820  0.092830  1.298437
    Co  Co8   0.961450  0.928050  0.180850  1.298911
    Co  Co9   0.933380  0.064170  0.174490  1.178414
    Co  Co10  0.922230  0.918060  0.670610  1.297004
    Co  Co11  0.990780  0.854470  0.632270  1.277599
    Co  Co12  0.906610  0.060050  0.668430  1.251622
    H   H1    0.108350  0.940700  0.444570  0.089898
    H   H2    0.089420  0.888490  0.366090  0.361523
    H   H3    0.082410  0.332370  0.587020  0.154196
    H   H4    0.076480  0.456180  0.548610  0.402626
    H   H5    0.001930  0.669620  0.699940  0.323535
    H   H6    0.084220  0.673660  0.196400  0.172103
    H   H7    0.058160  0.536100  0.214220  0.383497
    H   H8    0.092650  0.584980  0.684270  0.166025
    H   H9    0.118470  0.384370  0.058890  0.112215
    H   H10   0.118000  0.527190  0.583960  0.363137
    H   H11   0.134160  0.031870  0.916400  0.240273
    H   H12   0.140520  0.522540  0.029790  0.378896
    H   H13   0.140110  0.094070  0.810180  0.320152
    H   H14   0.978540  0.576390  0.693750  0.328521
    H   H15   0.208440  0.234670  0.217310  0.382777
    H   H16   0.241820  0.288710  0.260870  0.372983
    H   H17   0.824700  0.844750  0.818520  0.219473
    H   H18   0.808260  0.797850  0.916940  0.300866
    H   H19   0.929970  0.026450  0.285500  0.099236
    H   H20   0.948480  0.077880  0.364220  0.355510
    H   H21   0.250880  0.424530  0.747220  0.146114
    H   H22   0.224490  0.236430  0.748630  0.382384
    H   H23   0.260100  0.302850  0.785130  0.371032
    H   H24   0.516730  0.717370  0.736930  0.161960
    H   H25   0.595690  0.849570  0.573520  0.151803
    H   H26   0.660140  0.741420  0.778150  0.319528
    H   H27   0.735960  0.783740  0.743800  0.342488
    H   H28   0.369990  0.770990  0.565610  0.335285
    H   H29   0.448120  0.816410  0.531850  0.365761
    H   H30   0.316070  0.880500  0.721310  0.182200
    H   H31   0.431710  0.858060  0.753210  0.379374
    H   H32   0.404100  0.756260  0.756700  0.382193
    H   H33   0.245860  0.416440  0.233140  0.142329
    H   H34   0.174930  0.578500  0.072520  0.357787
    H   H35   0.538170  0.850030  0.166380  0.174210
    H   H36   0.674240  0.697590  0.214730  0.192589
    H   H37   0.674630  0.986700  0.141840  0.302470
    H   H38   0.773810  0.994520  0.184300  0.214413
    H   H39   0.457800  0.559330  0.247660  0.348279
    H   H40   0.542280  0.561890  0.243360  0.382305
    H   H41   0.408640  0.826920  0.211620  0.167701
    H   H42   0.442240  0.953330  0.218330  0.339418
    H   H43   0.355610  0.953410  0.217570  0.338402
    H   H44   0.151440  0.530940  0.235420  0.374978
    H   H45   0.626730  0.113790  0.528730  0.158857
    H   H46   0.940080  0.319020  0.504990  0.130603
    H   H47   0.618950  0.995490  0.530890  0.349777
    H   H48   0.715250  0.012820  0.529210  0.379431
    H   H49   0.822920  0.418240  0.462360  0.376216
    H   H50   0.928200  0.439110  0.473240  0.378647
    H   H51   0.776930  0.415680  0.632700  0.148172
    H   H52   0.851830  0.688910  0.495890  0.190358
    H   H53   0.792740  0.482240  0.683000  0.351635
    H   H54   0.819510  0.590730  0.659790  0.358979
    H   H55   0.783440  0.506160  0.462480  0.354746
    H   H56   0.811850  0.615000  0.440820  0.377506
    H   H57   0.447240  0.260430  0.459140  0.136787
    H   H58   0.367210  0.080620  0.624540  0.226099
    H   H59   0.311810  0.251030  0.427060  0.368275
    H   H60   0.239640  0.199470  0.466660  0.331046
    H   H61   0.576660  0.143830  0.618000  0.392719
    H   H62   0.504460  0.093060  0.657320  0.389887
    H   H63   0.619500  0.110330  0.026460  0.136253
    H   H64   0.942040  0.268490  0.034670  0.205994
    H   H65   0.587430  0.981890  0.023950  0.348046
    H   H66   0.674220  0.981020  0.025730  0.351997
    H   H67   0.869580  0.407660  0.993390  0.381328
    H   H68   0.964680  0.405500  0.014000  0.383416
    H   H69   0.910330  0.564960  0.168790  0.124076
    H   H70   0.791030  0.535010  0.994610  0.139154
    H   H71   0.881880  0.423620  0.198650  0.373564
    H   H72   0.847150  0.366300  0.156640  0.353226
    H   H73   0.834250  0.721680  0.008310  0.386646
    H   H74   0.802690  0.667140  0.965600  0.357575
    H   H75   0.314940  0.189680  0.961730  0.142548
    H   H76   0.534510  0.173030  0.122130  0.158812
    H   H77   0.426650  0.266740  0.917660  0.382354
    H   H78   0.534260  0.284480  0.948980  0.355837
    H   H79   0.321200  0.092890  0.134440  0.370392
    H   H80   0.429000  0.111090  0.166220  0.355295
    N   N1    0.024060  0.642550  0.695180  -0.754096
    N   N2    0.110320  0.474700  0.582500  -0.920562
    N   N3    0.126630  0.568700  0.217810  -0.910654
    N   N4    0.215600  0.282480  0.224100  -0.843942
    N   N5    0.633800  0.233140  0.031990  -0.845255
    N   N6    0.668440  0.339530  0.059080  -0.927405
    N   N7    0.785980  0.352760  0.053360  -0.816810
    N   N8    0.762550  0.362540  0.535850  -0.820756
    N   N9    0.639070  0.338810  0.542170  -0.916979
    N   N10   0.615670  0.231480  0.522160  -0.863881
    N   N11   0.241650  0.591720  0.177080  -0.778757
    N   N12   0.360410  0.609190  0.169610  -0.851307
    N   N13   0.393550  0.702050  0.207450  -0.873839
    N   N14   0.347430  0.719080  0.674240  -0.923117
    N   N15   0.320650  0.609020  0.655070  -0.984337
    N   N16   0.213160  0.574390  0.685100  -0.876215
    N   N17   0.227250  0.285150  0.751030  -0.849338
    N   N18   0.676930  0.769380  0.743800  -0.763722
    N   N19   0.432050  0.790600  0.566140  -0.840191
    N   N20   0.384590  0.797450  0.743590  -0.877211
    N   N21   0.163380  0.527300  0.066610  -0.872559
    N   N22   0.707660  0.956340  0.164390  -0.631473
    N   N23   0.515190  0.594460  0.234940  -0.867932
    N   N24   0.373670  0.921470  0.214030  -0.754073
    N   N25   0.687010  0.038180  0.529550  -0.822543
    N   N26   0.862780  0.395460  0.479020  -0.901945
    N   N27   0.810390  0.540420  0.654530  -0.819909
    N   N28   0.799300  0.558320  0.469900  -0.902984
    N   N29   0.295870  0.214700  0.462120  -0.798374
    N   N30   0.520120  0.128520  0.622190  -0.937801
    N   N31   0.655700  0.014660  0.026900  -0.771129
    N   N32   0.896520  0.371680  0.011890  -0.926149
    N   N33   0.860590  0.419060  0.161960  -0.879266
    N   N34   0.826620  0.672900  0.002280  -0.830750
    N   N35   0.472120  0.260790  0.951140  -0.885458
    N   N36   0.381730  0.112590  0.132610  -0.800101
    O   O1    0.046310  0.107070  0.035890  -0.605581
    O   O2    0.105570  0.203270  0.114130  -0.705199
    O   O3    0.064920  0.925800  0.086650  -0.779709
    O   O4    0.058320  0.122340  0.543290  -0.637689
    O   O5    0.042950  0.144820  0.696920  -0.792507
    O   O6    0.106420  0.190460  0.634700  -0.788989
    O   O7    0.096430  0.840040  0.681630  -0.768764
    O   O8    0.036210  0.920110  0.580880  -0.745378
    O   O9    0.037560  0.984990  0.123620  -0.974789
    O   O10   0.041270  0.081250  0.234680  -0.690969
    O   O11   0.018640  0.949170  0.255170  -0.686344
    O   O12   0.030240  0.756700  0.099740  -0.869673
    O   O13   0.011700  0.009920  0.475490  -0.720985
    O   O14   0.006070  0.868500  0.999190  -0.784529
    O   O15   0.123920  0.839290  0.185780  -0.747484
    O   O16   0.127570  0.952600  0.363470  -0.537194
    O   O17   0.006460  0.193620  0.134210  -0.851859
    O   O18   0.129380  0.035970  0.829570  -0.522327
    O   O19   0.998450  0.751100  0.591120  -0.833058
    O   O20   0.207080  0.910770  0.128250  -0.748489
    O   O21   0.987520  0.877920  0.493330  -0.723129
    O   O22   0.191210  0.014880  0.022810  -0.782804
    O   O23   0.202490  0.099820  0.053510  -0.655278
    O   O24   0.176760  0.895050  0.626570  -0.811190
    O   O25   0.176540  0.012040  0.525600  -0.798664
    O   O26   0.194450  0.084090  0.569290  -0.781337
    O   O27   0.829400  0.039210  0.111560  -0.662378
    O   O28   0.975790  0.025800  0.149190  -0.768597
    O   O29   0.966680  0.829170  0.191650  -0.633756
    O   O30   0.892910  0.088340  0.049540  -0.770604
    O   O31   0.996430  0.980080  0.981020  -0.748307
    O   O32   0.853700  0.937290  0.214690  -0.587052
    O   O33   0.822260  0.858780  0.170200  -0.670854
    O   O34   0.922940  0.751020  0.108200  -0.816937
    O   O35   0.921300  0.162870  0.605940  -0.824203
    O   O36   0.944250  0.018670  0.642060  -0.754468
    O   O37   0.929870  0.820430  0.682710  -0.652218
    O   O38   0.969560  0.960680  0.603170  -0.935401
    O   O39   0.905620  0.117610  0.547340  -0.734479
    O   O40   0.776480  0.968890  0.636120  -0.732372
    O   O41   0.782700  0.850970  0.660250  -0.684537
    O   O42   0.887990  0.963870  0.734880  -0.801109
    O   O43   0.984270  0.938790  0.744310  -0.730731
    O   O44   0.892820  0.744960  0.601670  -0.691407
    O   O45   0.828600  0.859160  0.897970  -0.500173
    O   O46   0.910220  0.013860  0.366570  -0.530473
