# Generated by REPEAT Assigner based on pymatgen
data_DB7-ddmof_1326
_audit_creation_date              2022-05-24
_audit_creation_method            REPEAT_Assigner
_cell_length_a                    18.563840
_cell_length_b                    14.752590
_cell_length_c                    43.892720
_cell_angle_alpha                 90.852460
_cell_angle_beta                  91.254440
_cell_angle_gamma                 111.058310
_cell_volume                      11211.848570
_symmetry_space_group_name_H-M    P1
_symmetry_Int_Tables_number       1
loop_
    _symmetry_equiv_pos_site_id
    _symmetry_equiv_pos_as_xyz
    1  x,y,z
loop_
    _atom_site_type_symbol
    _atom_site_label
    _atom_site_fract_x
    _atom_site_fract_y
    _atom_site_fract_z
    _atom_type_partial_charge
    C   C1    0.551050  0.094100  0.919710  1.047395
    C   C2    0.785300  0.186370  0.853750  0.599996
    C   C3    0.457400  0.106960  0.839270  0.728912
    C   C4    0.729620  0.477310  0.855360  0.776695
    C   C5    0.492450  0.388720  0.919830  0.925507
    C   C6    0.817480  0.464580  0.934900  0.777308
    C   C7    0.847660  0.457970  0.591110  0.922194
    C   C8    0.620110  0.523040  0.537980  0.870125
    C   C9    0.873740  0.402260  0.510210  0.735610
    C   C10   0.551110  0.167250  0.525340  1.021668
    C   C11   0.756410  0.111390  0.587020  0.692250
    C   C12   0.494700  0.225160  0.607870  0.694459
    C   C13   0.923800  0.942230  0.665380  0.822500
    C   C14   0.890790  0.766920  0.769800  0.603714
    C   C15   0.026800  0.757660  0.655250  0.864889
    C   C16   0.177860  0.019220  0.773750  0.927660
    C   C17   0.221260  0.111300  0.679260  0.562472
    C   C18   0.014330  0.134360  0.777640  0.829106
    C   C19   0.417220  0.933710  0.420430  1.011192
    C   C20   0.177830  0.799720  0.354950  0.573889
    C   C21   0.510010  0.875360  0.346780  0.700338
    C   C22   0.231290  0.518970  0.372920  0.770649
    C   C23   0.479780  0.639820  0.437970  0.926319
    C   C24   0.154090  0.572140  0.447470  0.808978
    C   C25   0.144900  0.539200  0.088200  0.803846
    C   C26   0.355410  0.512980  0.018720  0.852588
    C   C27   0.086090  0.615620  0.011440  0.851379
    C   C28   0.410390  0.867850  0.023030  1.155578
    C   C29   0.214220  0.884140  0.098330  0.311188
    C   C30   0.492990  0.797460  0.097280  0.461690
    C   C31   0.060810  0.039880  0.184640  0.740927
    C   C32   0.071620  0.195270  0.291920  0.460869
    C   C33   0.985890  0.249780  0.168840  0.730445
    C   C34   0.779740  0.962600  0.276940  0.811664
    C   C35   0.765580  0.905180  0.175220  0.463382
    C   C36   0.931450  0.831730  0.282250  0.812951
    C   C37   0.087220  0.470150  0.107550  -0.002125
    C   C38   0.044470  0.376440  0.096000  -0.108683
    C   C39   0.998230  0.305150  0.115250  0.154363
    C   C40   0.996280  0.326820  0.146560  -0.022108
    C   C41   0.029820  0.423950  0.156940  -0.251559
    C   C42   0.076040  0.495580  0.137700  0.009621
    C   C43   0.114600  0.593500  0.149550  0.335886
    C   C44   0.956940  0.208240  0.103130  0.326351
    C   C45   0.699170  0.868630  0.153130  0.143695
    C   C46   0.699760  0.919970  0.126360  -0.221527
    C   C47   0.634540  0.893270  0.106820  -0.068483
    C   C48   0.566190  0.817200  0.114760  0.147346
    C   C49   0.567130  0.761770  0.140330  -0.249362
    C   C50   0.633660  0.785370  0.159110  0.092068
    C   C51   0.635240  0.721310  0.183490  0.298474
    C   C52   0.639470  0.941340  0.078060  0.479947
    C   C53   0.102090  0.986820  0.168030  -0.195444
    C   C54   0.182670  0.027570  0.166250  -0.038519
    C   C55   0.221320  0.989660  0.145470  -0.017710
    C   C56   0.178110  0.913860  0.124750  0.126809
    C   C57   0.098630  0.866400  0.129120  0.022191
    C   C58   0.060890  0.901340  0.150990  -0.132901
    C   C59   0.980390  0.847490  0.156400  0.463772
    C   C60   0.304680  0.024200  0.147170  0.327107
    C   C61   0.581270  0.919040  0.329470  0.147926
    C   C62   0.576090  0.927530  0.297810  -0.291162
    C   C63   0.642780  0.953550  0.280380  0.069969
    C   C64   0.715440  0.970380  0.294720  -0.209663
    C   C65   0.721320  0.971510  0.326660  -0.149839
    C   C66   0.654710  0.945680  0.344100  -0.055743
    C   C67   0.662100  0.945000  0.376930  0.533057
    C   C68   0.636080  0.962610  0.247830  0.481241
    C   C69   0.190970  0.434540  0.352600  -0.143791
    C   C70   0.109880  0.394480  0.352170  -0.015817
    C   C71   0.069880  0.314250  0.333270  -0.186050
    C   C72   0.111310  0.270490  0.315340  0.162435
    C   C73   0.192450  0.307820  0.316920  -0.153266
    C   C74   0.232340  0.391360  0.334480  -0.016368
    C   C75   0.315270  0.435190  0.332370  0.302413
    C   C76   0.986460  0.279810  0.331640  0.382241
    C   C77   0.110080  0.789030  0.334670  -0.007530
    C   C78   0.037250  0.769340  0.347370  -0.072211
    C   C79   0.974590  0.770650  0.329260  -0.037173
    C   C80   0.984540  0.793230  0.298200  -0.077320
    C   C81   0.054860  0.802780  0.284840  -0.127517
    C   C82   0.117690  0.800860  0.302890  -0.031719
    C   C83   0.189380  0.810570  0.288610  0.374904
    C   C84   0.900710  0.751900  0.342960  0.352518
    C   C85   0.554780  0.134100  0.469970  0.245518
    C   C86   0.511520  0.126750  0.496230  -0.498916
    C   C87   0.433220  0.066200  0.495700  0.265611
    C   C88   0.400370  0.007320  0.469960  0.298277
    C   C89   0.445580  0.009110  0.444610  -0.544731
    C   C90   0.521820  0.076020  0.444180  0.286240
    C   C91   0.078510  0.465800  0.487980  0.170031
    C   C92   0.080690  0.524480  0.462840  -0.373586
    C   C93   0.011250  0.527060  0.450180  0.424708
    C   C94   0.941000  0.476300  0.463720  0.010053
    C   C95   0.939420  0.422770  0.490060  -0.197381
    C   C96   0.008160  0.414650  0.501380  0.279671
    C   C97   0.599250  0.635470  0.463470  0.259911
    C   C98   0.524270  0.636470  0.465630  -0.427735
    C   C99   0.486560  0.615680  0.493470  0.208095
    C   C100  0.520190  0.584520  0.518000  0.280625
    C   C101  0.592100  0.574660  0.514920  -0.416745
    C   C102  0.633160  0.604640  0.488060  0.338745
    C   C103  0.800410  0.070300  0.607160  -0.026833
    C   C104  0.840630  0.015530  0.594450  -0.102242
    C   C105  0.877380  0.968680  0.613280  0.084848
    C   C106  0.878130  0.981670  0.645270  -0.250128
    C   C107  0.837050  0.035570  0.657990  -0.008367
    C   C108  0.797000  0.078320  0.639110  -0.004892
    C   C109  0.751950  0.129480  0.652680  0.231636
    C   C110  0.908820  0.901670  0.599710  0.225329
    C   C111  0.429040  0.206170  0.628340  0.058869
    C   C112  0.368160  0.237190  0.620280  -0.124084
    C   C113  0.300560  0.208470  0.637140  -0.093405
    C   C114  0.293990  0.149040  0.662620  0.146152
    C   C115  0.356240  0.121730  0.671460  -0.162303
    C   C116  0.423310  0.149240  0.654370  -0.041151
    C   C117  0.485710  0.118040  0.663580  0.231933
    C   C118  0.238470  0.240690  0.628250  0.347800
    C   C119  0.031320  0.676280  0.637080  -0.303028
    C   C120  0.002570  0.584580  0.650250  -0.153233
    C   C121  0.944870  0.508120  0.634620  0.004450
    C   C122  0.921440  0.522870  0.604930  -0.031822
    C   C123  0.966440  0.605790  0.589390  -0.185768
    C   C124  0.024810  0.680470  0.605270  0.373916
    C   C125  0.071820  0.765490  0.589480  0.205083
    C   C126  0.908130  0.417330  0.649600  0.206260
    C   C127  0.885440  0.564080  0.980240  0.219869
    C   C128  0.888610  0.517880  0.952410  -0.274982
    C   C129  0.959890  0.518900  0.942030  0.274092
    C   C130  0.026420  0.558880  0.960470  0.112900
    C   C131  0.022260  0.598360  0.989340  -0.239146
    C   C132  0.952150  0.604180  0.998710  0.234547
    C   C133  0.497710  0.934690  0.945420  0.339468
    C   C134  0.524360  0.036750  0.947260  -0.297344
    C   C135  0.515180  0.083140  0.974270  -0.110811
    C   C136  0.478840  0.028270  0.999080  0.563579
    C   C137  0.449640  0.926010  0.996910  -0.647733
    C   C138  0.460270  0.879570  0.970070  0.239381
    C   C139  0.457580  0.457240  0.999100  0.259627
    C   C140  0.384900  0.465220  0.995130  -0.355936
    C   C141  0.342930  0.433870  0.967500  0.291476
    C   C142  0.375980  0.401800  0.943260  0.226032
    C   C143  0.451000  0.400830  0.946580  -0.362287
    C   C144  0.490470  0.425110  0.974900  0.168026
    C   C145  0.844940  0.180180  0.832860  0.090297
    C   C146  0.923070  0.217710  0.842470  -0.125672
    C   C147  0.980490  0.211970  0.823210  0.014489
    C   C148  0.960040  0.167670  0.794070  -0.132535
    C   C149  0.882650  0.135240  0.783780  -0.091110
    C   C150  0.824990  0.140840  0.803000  -0.034770
    C   C151  0.745720  0.106550  0.791830  0.438120
    C   C152  0.060200  0.249350  0.833840  0.366398
    C   C153  0.388370  0.055180  0.820280  -0.001483
    C   C154  0.318730  0.005410  0.834500  -0.053071
    C   C155  0.248210  0.983520  0.818470  0.057237
    C   C156  0.247570  0.010730  0.787840  -0.289755
    C   C157  0.317430  0.048530  0.772650  -0.170545
    C   C158  0.387850  0.071180  0.788750  0.127424
    C   C159  0.459310  0.114020  0.773010  0.087576
    C   C160  0.176870  0.938320  0.834090  0.340644
    C   C161  0.764660  0.549490  0.831940  -0.111242
    C   C162  0.774510  0.647270  0.837570  -0.097764
    C   C163  0.814600  0.718840  0.817210  0.067201
    C   C164  0.845600  0.692700  0.790900  0.065785
    C   C165  0.833280  0.594690  0.784640  -0.280826
    C   C166  0.793070  0.522980  0.805000  0.190416
    C   C167  0.779730  0.422350  0.797710  0.229052
    C   C168  0.822590  0.818670  0.823220  0.299087
    F   F1    0.564830  0.082040  0.419140  -0.110965
    F   F2    0.629950  0.194140  0.469990  -0.174780
    F   F3    0.326060  0.944580  0.470340  -0.197965
    F   F4    0.390430  0.059950  0.520820  -0.129815
    F   F5    0.007460  0.362740  0.526730  -0.117089
    F   F6    0.144870  0.460120  0.499860  -0.182202
    F   F7    0.874750  0.483280  0.452210  -0.126608
    F   F8    0.011710  0.577930  0.424600  -0.160749
    F   F9    0.703630  0.597600  0.485070  -0.271995
    F   F10   0.637050  0.657920  0.436890  -0.114166
    F   F11   0.481860  0.560960  0.544440  -0.115492
    F   F12   0.415340  0.620710  0.496180  -0.204034
    F   F13   0.947810  0.643450  0.026480  -0.123936
    F   F14   0.817090  0.565970  0.990020  -0.204874
    F   F15   0.094470  0.555360  0.950910  -0.170254
    F   F16   0.964210  0.479070  0.914350  -0.113118
    F   F17   0.432410  0.781060  0.967520  -0.186446
    F   F18   0.505020  0.888830  0.919260  -0.172162
    F   F19   0.472980  0.074540  0.025360  -0.179276
    F   F20   0.540720  0.181630  0.976380  -0.057051
    F   F21   0.561990  0.420790  0.978580  -0.207420
    F   F22   0.496820  0.482180  0.026270  -0.092072
    F   F23   0.336870  0.376740  0.916080  -0.109271
    F   F24   0.271880  0.439490  0.963640  -0.231678
    H   H1    0.647320  0.272770  0.841450  0.421073
    H   H2    0.626930  0.299640  0.933740  0.303682
    H   H3    0.678470  0.345120  0.515150  0.314119
    H   H4    0.697820  0.287710  0.605130  0.404269
    H   H5    0.045820  0.808750  0.726790  0.361248
    H   H6    0.013630  0.056210  0.709410  0.284005
    H   H7    0.315290  0.707280  0.351750  0.430998
    H   H8    0.348430  0.737310  0.444520  0.342679
    H   H9    0.279560  0.686600  0.009870  0.280764
    H   H10   0.289560  0.717150  0.102960  0.411815
    H   H11   0.935620  0.183210  0.240180  0.386894
    H   H12   0.954850  0.929960  0.218810  0.293829
    H   H13   0.049070  0.358210  0.072260  0.087915
    H   H14   0.025840  0.441930  0.180750  0.162531
    H   H15   0.750800  0.981370  0.120840  0.226440
    H   H16   0.515790  0.700620  0.145760  0.187899
    H   H17   0.215210  0.089960  0.180640  0.153133
    H   H18   0.065980  0.802490  0.115370  0.140049
    H   H19   0.519970  0.910820  0.286600  0.137766
    H   H20   0.777280  0.986700  0.337860  0.230326
    H   H21   0.077790  0.426320  0.366460  0.170928
    H   H22   0.224610  0.273940  0.303440  0.208955
    H   H23   0.029990  0.756410  0.371570  0.180700
    H   H24   0.062120  0.817650  0.260730  0.148747
    H   H25   0.840830  0.006350  0.569880  0.176787
    H   H26   0.836550  0.044560  0.682560  0.137000
    H   H27   0.372500  0.281330  0.600360  0.208601
    H   H28   0.351620  0.076730  0.691190  0.209983
    H   H29   0.015390  0.577370  0.674130  0.171767
    H   H30   0.953660  0.614150  0.565620  0.111199
    H   H31   0.939040  0.249700  0.865180  0.151545
    H   H32   0.866890  0.101490  0.761270  0.109497
    H   H33   0.319250  0.989960  0.858580  0.135555
    H   H34   0.317000  0.065710  0.748730  0.213979
    H   H35   0.752350  0.667880  0.858180  0.127501
    H   H36   0.855710  0.574370  0.764060  0.129824
    N   N1    0.145480  0.671950  0.159020  -0.443131
    N   N2    0.923830  0.130560  0.093450  -0.399496
    N   N3    0.636430  0.669930  0.203010  -0.437128
    N   N4    0.643400  0.979800  0.055030  -0.482430
    N   N5    0.915940  0.804210  0.160720  -0.496247
    N   N6    0.371470  0.051960  0.148620  -0.452655
    N   N7    0.667950  0.944380  0.403220  -0.517294
    N   N8    0.630370  0.970030  0.221760  -0.486319
    N   N9    0.381670  0.470260  0.330660  -0.389418
    N   N10   0.919670  0.252310  0.330360  -0.425539
    N   N11   0.246820  0.818330  0.277180  -0.472901
    N   N12   0.841510  0.736940  0.353910  -0.385883
    N   N13   0.715870  0.170480  0.663560  -0.314047
    N   N14   0.933660  0.847780  0.588740  -0.310343
    N   N15   0.535550  0.092800  0.671010  -0.350024
    N   N16   0.188710  0.266490  0.621130  -0.413279
    N   N17   0.109570  0.833720  0.576830  -0.343359
    N   N18   0.878980  0.344660  0.661720  -0.330531
    N   N19   0.682230  0.079130  0.782880  -0.492710
    N   N20   0.124060  0.279240  0.842340  -0.413702
    N   N21   0.516530  0.148320  0.760380  -0.252426
    N   N22   0.119700  0.902140  0.846590  -0.407807
    N   N23   0.769050  0.341760  0.791840  -0.379865
    N   N24   0.829020  0.898610  0.828010  -0.377713
    Ni  Ni1   0.724680  0.306010  0.893320  1.185671
    Ni  Ni2   0.548510  0.262430  0.882010  1.179445
    Ni  Ni3   0.611740  0.100280  0.857780  1.167312
    Ni  Ni4   0.663030  0.470230  0.915380  1.105823
    Ni  Ni5   0.615290  0.342490  0.567600  1.245002
    Ni  Ni6   0.756590  0.281930  0.551800  1.192261
    Ni  Ni7   0.772780  0.500230  0.537160  1.150053
    Ni  Ni8   0.600420  0.127850  0.586180  1.075251
    Ni  Ni9   0.014040  0.947890  0.752400  1.137566
    Ni  Ni10  0.077760  0.941730  0.688120  1.230462
    Ni  Ni11  0.917360  0.774180  0.702130  1.077833
    Ni  Ni12  0.138380  0.152960  0.732990  1.168140
    Ni  Ni13  0.245790  0.710210  0.402720  1.213528
    Ni  Ni14  0.420030  0.745370  0.393590  1.175789
    Ni  Ni15  0.353740  0.887420  0.357570  1.077575
    Ni  Ni16  0.308400  0.558510  0.433010  1.055479
    Ni  Ni17  0.361510  0.680680  0.058110  1.161729
    Ni  Ni18  0.209670  0.728190  0.054260  1.202162
    Ni  Ni19  0.198900  0.521090  0.027190  1.103809
    Ni  Ni20  0.372150  0.884990  0.086810  1.098096
    Ni  Ni21  0.947700  0.028900  0.263770  1.105653
    Ni  Ni22  0.909810  0.061530  0.196470  1.259124
    Ni  Ni23  0.068550  0.207650  0.223830  1.051878
    Ni  Ni24  0.822950  0.838960  0.231820  1.174063
    O   O1    0.637810  0.241730  0.861540  -1.120400
    O   O2    0.804340  0.259840  0.873330  -0.524981
    O   O3    0.725860  0.106930  0.858990  -0.616925
    O   O4    0.769370  0.426920  0.866670  -0.559494
    O   O5    0.780470  0.514630  0.921080  -0.622849
    O   O6    0.606610  0.082140  0.903980  -0.677020
    O   O7    0.466870  0.195040  0.849290  -0.599284
    O   O8    0.636130  0.328420  0.913320  -0.951838
    O   O9    0.805020  0.374200  0.926340  -0.613233
    O   O10   0.470100  0.305370  0.904760  -0.594046
    O   O11   0.550050  0.463000  0.910290  -0.679672
    O   O12   0.669430  0.481230  0.869450  -0.635234
    O   O13   0.508020  0.139410  0.907840  -0.562540
    O   O14   0.494080  0.056340  0.852960  -0.729805
    O   O15   0.699660  0.365610  0.536070  -1.005107
    O   O16   0.573240  0.440290  0.548330  -0.634035
    O   O17   0.691520  0.560430  0.548500  -0.630645
    O   O18   0.537060  0.239300  0.538910  -0.534175
    O   O19   0.499900  0.152320  0.591540  -0.653616
    O   O20   0.796480  0.494930  0.582370  -0.740410
    O   O21   0.836150  0.311660  0.518190  -0.554383
    O   O22   0.674910  0.262630  0.584720  -1.085133
    O   O23   0.534020  0.314990  0.600310  -0.649091
    O   O24   0.793630  0.174000  0.566600  -0.553877
    O   O25   0.682220  0.063120  0.583050  -0.625309
    O   O26   0.587300  0.118820  0.540090  -0.601742
    O   O27   0.842480  0.371530  0.580990  -0.572401
    O   O28   0.870710  0.475270  0.527110  -0.675426
    O   O29   0.018010  0.850930  0.719690  -1.033602
    O   O30   0.953280  0.837910  0.780190  -0.478170
    O   O31   0.860300  0.772310  0.742730  -0.666286
    O   O32   0.116280  0.941050  0.768690  -0.585449
    O   O33   0.061350  0.191940  0.757710  -0.713003
    O   O34   0.891830  0.892040  0.689150  -0.580257
    O   O35   0.088810  0.837090  0.659870  -0.645577
    O   O36   0.055510  0.036110  0.717570  -0.975302
    O   O37   0.019280  0.050380  0.784930  -0.571961
    O   O38   0.159090  0.049930  0.665070  -0.519818
    O   O39   0.223560  0.122350  0.709230  -0.824860
    O   O40   0.173130  0.105410  0.772000  -0.558397
    O   O41   0.994420  0.951710  0.657970  -0.448053
    O   O42   0.957180  0.759910  0.659990  -0.714516
    O   O43   0.327770  0.751960  0.369760  -1.120683
    O   O44   0.164960  0.751190  0.380360  -0.525284
    O   O45   0.239310  0.879860  0.353260  -0.569071
    O   O46   0.195110  0.577490  0.380660  -0.660187
    O   O47   0.191490  0.516720  0.437620  -0.607111
    O   O48   0.360410  0.933970  0.402030  -0.572121
    O   O49   0.498810  0.792500  0.360250  -0.632525
    O   O50   0.336130  0.697740  0.425370  -1.022592
    O   O51   0.169240  0.660080  0.436710  -0.598914
    O   O52   0.500290  0.717940  0.421380  -0.529513
    O   O53   0.420570  0.562810  0.429370  -0.687523
    O   O54   0.293890  0.522420  0.387990  -0.486263
    O   O55   0.460490  0.883050  0.413230  -0.511101
    O   O56   0.471820  0.931220  0.355460  -0.695594
    O   O57   0.266370  0.658540  0.030270  -0.950714
    O   O58   0.402080  0.593500  0.032110  -0.626225
    O   O59   0.287340  0.466720  0.029770  -0.630285
    O   O60   0.428030  0.792370  0.031130  -0.442276
    O   O61   0.477550  0.870900  0.085880  -0.622903
    O   O62   0.192500  0.509070  0.073260  -0.671059
    O   O63   0.119750  0.702930  0.023830  -0.630942
    O   O64   0.303580  0.747360  0.082890  -1.100131
    O   O65   0.453580  0.708170  0.087600  -0.524280
    O   O66   0.169850  0.819300  0.078600  -0.451151
    O   O67   0.283810  0.938880  0.090550  -0.413190
    O   O68   0.369870  0.901880  0.040970  -0.750054
    O   O69   0.136890  0.621590  0.081240  -0.556812
    O   O70   0.095490  0.539900  0.024030  -0.691910
    O   O71   0.961430  0.138160  0.233730  -0.975935
    O   O72   0.005410  0.126100  0.297770  -0.393684
    O   O73   0.108390  0.189270  0.267090  -0.686045
    O   O74   0.843540  0.039360  0.274760  -0.578527
    O   O75   0.889570  0.784160  0.258090  -0.676480
    O   O76   0.090510  0.087010  0.210210  -0.557212
    O   O77   0.917880  0.177690  0.170170  -0.677438
    O   O78   0.913570  0.953790  0.224590  -0.954425
    O   O79   0.927460  0.914580  0.292140  -0.646928
    O   O80   0.832430  0.966400  0.166060  -0.519251
    O   O81   0.753760  0.891050  0.204610  -0.636002
    O   O82   0.779790  0.875400  0.270650  -0.546077
    O   O83   0.998750  0.048030  0.172010  -0.414201
    O   O84   0.049430  0.238520  0.179700  -0.723691
