# Generated by REPEAT Assigner based on pymatgen
data_DB7-ddmof_5952
_audit_creation_date              2022-05-24
_audit_creation_method            REPEAT_Assigner
_cell_length_a                    20.848340
_cell_length_b                    21.602310
_cell_length_c                    40.013430
_cell_angle_alpha                 60.685120
_cell_angle_beta                  119.024090
_cell_angle_gamma                 133.216790
_cell_volume                      11128.055074
_symmetry_space_group_name_H-M    P1
_symmetry_Int_Tables_number       1
loop_
    _symmetry_equiv_pos_site_id
    _symmetry_equiv_pos_as_xyz
    1  x,y,z
loop_
    _atom_site_type_symbol
    _atom_site_label
    _atom_site_fract_x
    _atom_site_fract_y
    _atom_site_fract_z
    _atom_type_partial_charge
    Co  Co1   0.062620  0.024100  0.040260  1.270672
    C   C1    0.000160  0.997140  0.207230  0.798066
    O   O1    0.068890  0.126010  0.036970  -0.516230
    O   O2    0.014720  0.959430  0.195760  -0.654466
    O   O3    0.040280  0.922340  0.062070  -0.708716
    Co  Co2   0.068320  0.034940  0.541720  1.284671
    O   O4    0.049010  0.122670  0.534240  -0.533496
    O   O5    0.061190  0.940460  0.565310  -0.684433
    C   C2    0.086080  0.980550  0.427520  0.177893
    C   C3    0.081580  0.983400  0.390740  -0.332232
    C   C4    0.019340  0.998520  0.318040  0.205064
    C   C5    0.022900  0.990410  0.250050  0.011047
    N   N1    0.055600  0.510320  0.585810  -0.403622
    C   C6    0.020800  0.243610  0.165150  0.310913
    N   N2    0.023240  0.452770  0.099890  -0.435215
    N   N3    0.038780  0.642480  0.200060  -0.316150
    N   N4    0.009990  0.296660  0.515030  -0.359225
    N   N5    0.048160  0.361000  0.037870  -0.457659
    C   C7    0.068000  0.213570  0.115890  0.909163
    C   C8    0.031260  0.201000  0.610430  0.990447
    C   C9    0.072950  0.064790  0.795350  -0.201247
    C   C10   0.074020  0.060480  0.761560  -0.010838
    C   C11   0.078450  0.464580  0.602410  0.413226
    O   O6    0.013700  0.017540  0.979650  -0.598205
    Co  Co3   0.023620  0.872460  0.607400  1.205045
    O   O7    0.028280  0.026820  0.481980  -0.620036
    C   C12   0.041250  0.947820  0.890020  -0.239440
    C   C13   0.033190  0.933670  0.926320  0.082845
    C   C14   0.032740  0.995610  0.430840  -0.182515
    C   C15   0.024150  0.999650  0.356510  0.355262
    C   C16   0.050020  0.323870  0.617070  0.014037
    Co  Co4   0.009390  0.861920  0.105500  1.232255
    C   C17   0.020890  0.971890  0.470780  0.870628
    O   O8    0.044590  0.785450  0.571830  -0.746426
    O   O9    0.016070  0.902190  0.496360  -0.653274
    O   O10   0.066640  0.179190  0.601690  -0.657503
    H   H1    0.067870  0.920100  0.888880  0.167533
    Co  Co5   0.074800  0.882720  0.039000  1.228490
    Br  Br1   0.059090  0.854920  0.970410  -0.017580
    C   C18   0.087290  0.311260  0.141660  0.081131
    C   C19   0.084210  0.073350  0.295960  -0.191512
    O   O11   0.098100  0.186390  0.107210  -0.630446
    C   C20   0.086780  0.068630  0.262770  0.015300
    C   C21   0.068330  0.428240  0.115910  0.422119
    C   C22   0.096770  0.676580  0.186280  0.339680
    C   C23   0.009000  0.982600  0.748500  -0.002958
    C   C24   0.087990  0.281340  0.625080  -0.145070
    C   C25   0.009060  0.990870  0.854980  0.271679
    O   O12   0.001880  0.951150  0.694630  -0.672993
    C   C26   0.005390  0.991040  0.816400  0.168496
    N   N6    0.000640  0.605210  0.668320  -0.292538
    C   C27   0.107400  0.407580  0.623380  -0.081420
    Co  Co6   0.004000  0.087890  0.075910  1.251777
    C   C28   0.001020  0.971870  0.928930  -0.117839
    O   O13   0.991180  0.060000  0.182140  -0.640855
    O   O14   0.994850  0.752660  0.066720  -0.729132
    C   C29   0.987160  0.953050  0.967640  0.765797
    N   N7    0.773150  0.742930  0.966910  -0.388859
    Co  Co7   0.980550  0.076160  0.573630  1.268332
    N   N8    0.192970  0.765910  0.733890  -0.357384
    Co  Co8   0.119070  0.919090  0.545730  1.208954
    H   H2    0.122280  0.971270  0.388950  0.172793
    C   C30   0.162190  0.847660  0.123560  0.822782
    O   O15   0.177710  0.894310  0.088250  -0.636832
    O   O16   0.121350  0.854060  0.137970  -0.633053
    O   O17   0.973090  0.048600  0.680140  -0.760400
    C   C31   0.986910  0.989030  0.705800  0.918807
    C   C32   0.193750  0.879420  0.629050  0.698877
    O   O18   0.215120  0.942770  0.597590  -0.608043
    O   O19   0.130940  0.856100  0.642820  -0.528871
    Br  Br2   0.163460  0.952020  0.472600  -0.069021
    C   C33   0.954540  0.273860  0.614240  0.338269
    H   H3    0.176530  0.537140  0.159320  0.179646
    H   H4    0.165250  0.520410  0.670950  0.126153
    C   C34   0.225950  0.068590  0.034950  0.692411
    O   O20   0.981340  0.175500  0.106560  -0.755544
    O   O21   0.164650  0.012500  0.012940  -0.655795
    O   O22   0.199130  0.082180  0.052920  -0.597364
    C   C35   0.249180  0.109310  0.539420  0.831542
    O   O23   0.943840  0.154920  0.603490  -0.759107
    O   O24   0.200310  0.051210  0.519350  -0.606078
    O   O25   0.209140  0.112280  0.555420  -0.670997
    H   H5    0.122790  0.119110  0.744330  0.119750
    Br  Br3   0.164830  0.171820  0.812280  0.022607
    H   H6    0.134530  0.127680  0.245190  0.084216
    Br  Br4   0.168610  0.183400  0.310000  0.039011
    C   C36   0.252910  0.697980  0.656480  0.086279
    C   C37   0.241180  0.748500  0.618160  -0.031503
    C   C38   0.241690  0.818390  0.612180  -0.002520
    C   C39   0.217770  0.817850  0.640300  0.000629
    C   C40   0.218700  0.759910  0.678310  -0.064282
    C   C41   0.240310  0.702550  0.686840  -0.041105
    C   C42   0.204400  0.763280  0.709180  0.376442
    C   C43   0.248770  0.648600  0.726340  0.348805
    C   C44   0.285540  0.897570  0.582390  0.244437
    N   N9    0.255530  0.605440  0.757920  -0.364169
    N   N10   0.321360  0.960890  0.558810  -0.310400
    C   C45   0.125970  0.399180  0.135730  -0.101377
    C   C46   0.128590  0.291100  0.133020  -0.092608
    C   C47   0.214760  0.809900  0.150290  -0.051838
    C   C48   0.169980  0.719650  0.169440  -0.043379
    C   C49   0.203680  0.674150  0.175810  -0.101525
    C   C50   0.272670  0.716090  0.157190  0.103285
    C   C51   0.317400  0.807700  0.139220  -0.065364
    C   C52   0.299050  0.854140  0.143910  0.069450
    C   C53   0.364100  0.947820  0.139710  0.292334
    C   C54   0.176300  0.591190  0.204930  0.386537
    N   N11   0.416430  0.022670  0.136550  -0.327933
    N   N12   0.154390  0.524920  0.228280  -0.378901
    C   C55   0.334480  0.236590  0.473650  0.322007
    N   N13   0.294460  0.255780  0.443320  -0.337171
    C   C56   0.290450  0.982800  0.030720  0.393381
    N   N14   0.248910  0.909380  0.032530  -0.378687
    C   C57   0.719500  0.288670  0.023150  0.120029
    C   C58   0.632170  0.230120  0.029860  -0.070248
    C   C59   0.590570  0.262320  0.028580  -0.001403
    C   C60   0.637590  0.352630  0.021260  -0.089994
    C   C61   0.730620  0.408090  0.024390  0.078250
    C   C62   0.771540  0.377650  0.023170  -0.207871
    H   H7    0.597610  0.160130  0.036660  0.100534
    H   H8    0.604280  0.378290  0.018040  0.109045
    H   H9    0.842820  0.421460  0.023360  0.155160
    C   C63   0.719270  0.278620  0.531530  0.144121
    C   C64   0.640060  0.221570  0.546160  -0.187081
    C   C65   0.615100  0.255890  0.556060  0.174099
    C   C66   0.678450  0.340740  0.561100  -0.221708
    C   C67   0.756760  0.398440  0.547300  0.124524
    C   C68   0.772660  0.369740  0.528880  -0.222504
    H   H10   0.597110  0.151790  0.548970  0.118141
    H   H11   0.662510  0.364680  0.572180  0.120572
    H   H12   0.816940  0.418130  0.508980  0.159730
    C   C69   0.303640  0.667640  0.158740  0.075833
    C   C70   0.241430  0.581920  0.152220  -0.224469
    C   C71   0.267310  0.555530  0.137190  0.077581
    C   C72   0.345730  0.619950  0.123150  -0.169191
    C   C73   0.414030  0.693490  0.138470  0.267443
    C   C74   0.394330  0.714020  0.158920  -0.180800
    H   H13   0.359200  0.607060  0.105120  0.117275
    H   H14   0.447700  0.769740  0.171930  0.117917
    C   C75   0.290810  0.650810  0.665230  0.162827
    C   C76   0.380130  0.700450  0.661920  -0.327268
    C   C77   0.404680  0.664100  0.653300  0.265752
    C   C78   0.340840  0.579750  0.647640  -0.213283
    C   C79   0.256500  0.525810  0.655920  0.132644
    C   C80   0.231750  0.560920  0.665680  -0.208413
    H   H15   0.427890  0.768380  0.663370  0.146412
    H   H16   0.358270  0.554840  0.638010  0.127015
    Co  Co9   0.951430  0.926260  0.140570  1.233027
    C   C81   0.914340  0.715130  0.069140  0.795795
    Co  Co10  0.894450  0.045250  0.129960  1.278543
    O   O26   0.947660  0.014210  0.112380  -0.723500
    O   O27   0.974610  0.839160  0.151980  -0.493399
    O   O28   0.982370  0.963210  0.083830  -0.880807
    C   C82   0.767190  0.852030  0.140930  0.909137
    O   O29   0.808040  0.915280  0.156550  -0.767983
    O   O30   0.813780  0.837530  0.136280  -0.563722
    O   O31   0.969440  0.878790  0.993080  -0.554905
    C   C83   0.843710  0.102280  0.044090  0.891504
    O   O32   0.809150  0.038460  0.074360  -0.672250
    O   O33   0.908740  0.117320  0.035580  -0.601907
    O   O34   0.903200  0.746030  0.086120  -0.550063
    Co  Co11  0.939310  0.916670  0.639740  1.297112
    C   C84   0.959240  0.737710  0.572240  0.913044
    Co  Co12  0.869910  0.024360  0.630050  1.287227
    O   O35   0.929340  0.001030  0.611620  -0.726221
    O   O36   0.971730  0.836250  0.651150  -0.527221
    O   O37   0.981150  0.962490  0.584480  -0.916003
    C   C85   0.753650  0.830060  0.645520  0.929413
    O   O38   0.793790  0.894610  0.660050  -0.780945
    O   O39   0.800630  0.823220  0.635940  -0.603810
    C   C86   0.807760  0.070060  0.544200  0.922072
    O   O40   0.778250  0.008620  0.575980  -0.686025
    O   O41   0.870960  0.085250  0.534110  -0.604528
    O   O42   0.932510  0.762480  0.584530  -0.553968
    C   C87   0.947480  0.906940  0.771860  -0.022837
    C   C88   0.944100  0.911860  0.804790  -0.196926
    H   H17   0.895250  0.853310  0.821990  0.131357
    C   C89   0.973200  0.019650  0.893730  0.021181
    C   C90   0.974510  0.027020  0.856780  -0.190751
    H   H18   0.946810  0.047730  0.894710  0.120752
    Br  Br5   0.869490  0.795830  0.760050  0.016520
    Br  Br6   0.925840  0.083480  0.809370  0.007074
    C   C91   0.972700  0.017270  0.359000  -0.238532
    C   C92   0.977460  0.015530  0.396030  0.042341
    H   H19   0.935470  0.026180  0.397740  0.109772
    C   C93   0.960310  0.918590  0.307320  -0.260188
    C   C94   0.962570  0.914180  0.273850  0.001296
    H   H20   0.913460  0.859500  0.325250  0.137414
    Br  Br7   0.894880  0.042460  0.312560  0.030327
    Br  Br8   0.884430  0.803270  0.261770  0.027052
    C   C95   0.191610  0.434480  0.650730  0.096579
    C   C96   0.172870  0.307530  0.652270  -0.032265
    C   C97   0.220770  0.379800  0.667590  -0.000921
    C   C98   0.207160  0.256620  0.667070  0.410862
    C   C99   0.297430  0.396020  0.701320  0.206676
    N   N15   0.358610  0.408940  0.728250  -0.279328
    N   N16   0.878580  0.233990  0.612560  -0.401348
    N   N17   0.234530  0.215920  0.678950  -0.379590
    C   C100  0.656030  0.762190  0.642670  -0.197851
    C   C101  0.626730  0.704800  0.677640  0.039292
    C   C102  0.553820  0.687360  0.683500  -0.046532
    C   C103  0.498510  0.712130  0.651430  0.074310
    C   C104  0.520650  0.758470  0.614250  -0.107479
    C   C105  0.596260  0.778070  0.609560  0.075239
    C   C106  0.663940  0.655760  0.705050  0.306333
    C   C107  0.465660  0.785450  0.581060  0.284496
    C   C108  0.609950  0.809440  0.570700  0.362805
    C   C109  0.534160  0.642110  0.722140  0.312692
    N   N18   0.621240  0.833890  0.539760  -0.369266
    N   N19   0.518410  0.606020  0.752990  -0.352826
    N   N20   0.421830  0.807120  0.554530  -0.318717
    N   N21   0.692980  0.615770  0.726840  -0.313777
    C   C110  0.232800  0.731340  0.584990  0.359175
    N   N22   0.225840  0.717470  0.558470  -0.363815
    C   C111  0.220390  0.460410  0.140490  0.081653
    C   C112  0.222360  0.352490  0.135240  -0.007414
    C   C113  0.269790  0.431680  0.145030  -0.019041
    C   C114  0.271320  0.332500  0.131090  0.333337
    C   C115  0.364260  0.473650  0.165730  0.263141
    N   N23   0.439670  0.506180  0.182350  -0.318527
    N   N24   0.968100  0.189250  0.184250  -0.378176
    N   N25   0.310680  0.316700  0.127790  -0.324390
    C   C116  0.507970  0.738630  0.138890  0.011218
    C   C117  0.534680  0.785310  0.102760  -0.099374
    C   C118  0.614030  0.807050  0.101020  0.067245
    C   C119  0.669540  0.788050  0.135690  -0.199491
    C   C120  0.635290  0.729690  0.169380  0.113838
    C   C121  0.561190  0.714030  0.172730  -0.046164
    C   C122  0.479610  0.809160  0.067440  0.320692
    C   C123  0.670490  0.679570  0.198470  0.257669
    C   C124  0.539000  0.671970  0.210700  0.332498
    C   C125  0.638060  0.847530  0.063650  0.316931
    N   N26   0.521250  0.638370  0.241000  -0.375130
    N   N27   0.657160  0.879590  0.033790  -0.337193
    N   N28   0.697760  0.638600  0.221560  -0.284268
    N   N29   0.435710  0.828080  0.039170  -0.338844
    C   C126  0.370170  0.851050  0.111240  0.318103
    N   N30   0.412520  0.886310  0.088870  -0.368053
    C   C127  0.784040  0.134420  0.524580  -0.191034
    C   C128  0.692990  0.104630  0.513000  -0.034453
    C   C129  0.673000  0.161540  0.506140  -0.026283
    C   C130  0.742480  0.241720  0.517740  0.036414
    C   C131  0.833550  0.277930  0.521320  0.006738
    C   C132  0.852790  0.224590  0.522900  0.122433
    C   C133  0.620720  0.019640  0.504260  0.313597
    C   C134  0.903840  0.371080  0.516560  0.282321
    C   C135  0.940220  0.264510  0.518600  0.274286
    C   C136  0.585540  0.144030  0.482260  0.353881
    N   N31   0.515670  0.130000  0.463180  -0.376938
    N   N32   0.960950  0.445540  0.512320  -0.345935
    N   N33   0.562350  0.952110  0.496880  -0.301340
    C   C137  0.820100  0.490530  0.551070  0.203757
    C   C138  0.876640  0.507680  0.588420  -0.173358
    C   C139  0.912370  0.583840  0.596890  0.202776
    C   C140  0.898520  0.647330  0.567090  -0.264978
    C   C141  0.843790  0.631380  0.529400  0.015660
    C   C142  0.805650  0.553730  0.521270  -0.092245
    C   C143  0.895410  0.445170  0.618630  0.373011
    C   C144  0.826110  0.694480  0.499040  0.371674
    C   C145  0.749940  0.537950  0.482460  0.309832
    C   C146  0.961660  0.595910  0.636590  0.204946
    N   N34   0.705420  0.525260  0.451510  -0.337641
    N   N35   0.811820  0.744720  0.474790  -0.374538
    N   N36   0.910300  0.395230  0.642720  -0.366763
    C   C147  0.518160  0.212430  0.551950  0.064901
    C   C148  0.466440  0.231250  0.514700  -0.101432
    C   C149  0.384480  0.212330  0.511670  -0.017556
    C   C150  0.349060  0.167050  0.545210  -0.067877
    C   C151  0.403450  0.153840  0.582730  -0.034608
    C   C152  0.486030  0.173100  0.585990  -0.016201
    C   C153  0.498840  0.272090  0.479530  0.418712
    C   C154  0.375110  0.121470  0.617930  0.422642
    C   C155  0.537820  0.152370  0.624300  0.296319
    N   N37   0.579230  0.135830  0.654880  -0.368817
    N   N38   0.352540  0.095660  0.646060  -0.396333
    N   N39   0.524810  0.304730  0.451510  -0.385036
    C   C156  0.760130  0.254300  0.021090  -0.010926
    C   C157  0.838090  0.262570  0.049310  0.023720
    C   C158  0.880880  0.240360  0.043670  -0.011353
    C   C159  0.826440  0.170510  0.026100  -0.148572
    C   C160  0.743160  0.153950  0.999580  -0.064289
    C   C161  0.715350  0.203710  0.994010  0.009014
    C   C162  0.854250  0.263930  0.088330  0.218701
    C   C163  0.688090  0.088770  0.977620  0.401049
    C   C164  0.649780  0.210830  0.958690  0.332654
    C   C165  0.973760  0.307090  0.040600  0.435234
    N   N40   0.598010  0.217110  0.930190  -0.356782
    N   N41   0.643980  0.036680  0.960010  -0.371552
    N   N42   0.864800  0.263650  0.119550  -0.280611
    C   C166  0.785370  0.491350  0.035760  0.082647
    C   C167  0.783300  0.562550  0.007140  0.026830
    C   C168  0.804960  0.628100  0.018950  -0.104243
    C   C169  0.840110  0.629240  0.059060  -0.105715
    C   C170  0.832880  0.554120  0.087480  0.153337
    C   C171  0.813270  0.489090  0.076170  -0.169386
    C   C172  0.757910  0.567780  0.965600  0.316761
    C   C173  0.839850  0.541140  0.127830  0.262926
    C   C174  0.820090  0.419090  0.106110  0.407542
    C   C175  0.787640  0.692180  0.990080  0.390978
    N   N43   0.825450  0.363240  0.130180  -0.340094
    N   N44   0.844430  0.530130  0.160040  -0.317480
    N   N45   0.737630  0.571930  0.932430  -0.381789
    C   C176  0.499900  0.201380  0.037480  0.080500
    C   C177  0.484140  0.214870  0.063360  0.002798
    C   C178  0.394270  0.172150  0.063470  -0.143830
    C   C179  0.322280  0.103090  0.044290  0.108914
    C   C180  0.343950  0.074600  0.028810  -0.126966
    C   C181  0.426930  0.132140  0.018810  0.043888
    C   C182  0.559110  0.266310  0.091730  0.293139
    C   C183  0.433690  0.124530  0.986860  0.269326
    C   C184  0.377590  0.195470  0.085270  0.413651
    N   N46   0.438000  0.117680  0.961240  -0.320926
    N   N47   0.364610  0.214280  0.102740  -0.354127
    N   N48   0.618530  0.307190  0.114490  -0.344242
