# Generated by REPEAT Assigner based on pymatgen
data_DB7-ddmof_20175
_audit_creation_date              2022-05-24
_audit_creation_method            REPEAT_Assigner
_cell_length_a                    32.982560
_cell_length_b                    27.287050
_cell_length_c                    31.814810
_cell_angle_alpha                 103.608610
_cell_angle_beta                  115.733770
_cell_angle_gamma                 112.468070
_cell_volume                      20884.226928
_symmetry_space_group_name_H-M    P1
_symmetry_Int_Tables_number       1
loop_
    _symmetry_equiv_pos_site_id
    _symmetry_equiv_pos_as_xyz
    1  x,y,z
loop_
    _atom_site_type_symbol
    _atom_site_label
    _atom_site_fract_x
    _atom_site_fract_y
    _atom_site_fract_z
    _atom_type_partial_charge
    C   C1    0.668370  0.164060  0.890000  0.038497
    C   C2    0.687140  0.180880  0.943270  -0.112286
    C   C3    0.675970  0.217720  0.968460  -0.276183
    C   C4    0.646460  0.238650  0.941020  0.422267
    C   C5    0.625550  0.219640  0.886890  -0.231342
    C   C6    0.636220  0.182200  0.861480  -0.174713
    N   N1    0.641460  0.282820  0.969750  -0.512741
    C   C7    0.697130  0.439050  0.951150  0.075128
    C   C8    0.641460  0.395530  0.920840  -0.160671
    C   C9    0.622520  0.344920  0.927950  -0.241305
    C   C10   0.659330  0.337540  0.965570  0.339251
    C   C11   0.714760  0.382250  0.996990  -0.237946
    C   C12   0.733600  0.432670  0.989780  -0.146844
    C   C13   0.504590  0.206960  0.973110  0.036023
    C   C14   0.555900  0.252920  0.020000  -0.140150
    C   C15   0.600320  0.279100  0.018200  -0.220656
    C   C16   0.594100  0.259360  0.969700  0.356053
    C   C17   0.542390  0.213880  0.922480  -0.295243
    C   C18   0.497940  0.187880  0.924290  -0.111517
    C   C19   0.764320  0.591400  0.929520  0.044905
    C   C20   0.768710  0.542680  0.911970  -0.125076
    C   C21   0.745420  0.492150  0.917680  -0.196504
    C   C22   0.717510  0.489900  0.940940  0.124346
    C   C23   0.711880  0.537890  0.957230  -0.173464
    C   C24   0.735260  0.588520  0.951600  -0.133775
    C   C25   0.749910  0.095680  0.850010  0.100875
    C   C26   0.748500  0.142970  0.840670  -0.196371
    C   C27   0.717920  0.162320  0.849320  -0.132356
    C   C28   0.687730  0.133750  0.866420  0.117871
    C   C29   0.683700  0.081550  0.868970  -0.173675
    C   C30   0.714960  0.062810  0.861130  -0.165429
    C   C31   0.365140  0.129540  0.973990  0.128871
    C   C32   0.381100  0.092790  0.957040  -0.240030
    C   C33   0.427170  0.118180  0.957550  -0.137297
    C   C34   0.457480  0.180470  0.974880  0.116995
    C   C35   0.442130  0.217320  0.992930  -0.165982
    C   C36   0.396240  0.192000  0.992550  -0.171881
    H   H1    0.712160  0.167350  0.965770  0.117726
    H   H2    0.691940  0.231900  0.010000  0.142731
    H   H3    0.602220  0.234960  0.864970  0.139709
    H   H4    0.620970  0.168880  0.820170  0.119523
    H   H5    0.613010  0.400210  0.890990  0.115961
    H   H6    0.579640  0.310710  0.903090  0.147892
    H   H7    0.743310  0.377040  0.026120  0.138725
    H   H8    0.776630  0.466330  0.013640  0.119056
    H   H9    0.561400  0.268120  0.057870  0.115933
    H   H10   0.639920  0.313950  0.054700  0.129725
    H   H11   0.536500  0.199130  0.884500  0.153977
    H   H12   0.458290  0.153200  0.887730  0.109704
    H   H13   0.791030  0.544480  0.894850  0.112976
    H   H14   0.749780  0.455170  0.904820  0.122841
    H   H15   0.690350  0.536490  0.975180  0.118551
    H   H16   0.731390  0.625780  0.964980  0.099559
    H   H17   0.774160  0.167550  0.830550  0.116158
    H   H18   0.720520  0.201930  0.846160  0.121154
    H   H19   0.659140  0.057950  0.880460  0.109444
    H   H20   0.714890  0.025440  0.867420  0.130282
    H   H21   0.357410  0.044550  0.942760  0.152706
    H   H22   0.439020  0.089450  0.944030  0.108540
    H   H23   0.465210  0.265390  0.006320  0.120230
    H   H24   0.384010  0.220650  0.005370  0.120412
    C   C37   0.713440  0.193820  0.407960  0.091592
    C   C38   0.724960  0.205600  0.458530  -0.161376
    C   C39   0.710260  0.240080  0.480600  -0.257211
    C   C40   0.683810  0.263020  0.452440  0.399320
    C   C41   0.670630  0.249520  0.400890  -0.210869
    C   C42   0.685670  0.215290  0.378950  -0.209507
    N   N2    0.671780  0.301370  0.477360  -0.495410
    C   C43   0.725860  0.462930  0.466250  0.075279
    C   C44   0.671350  0.414960  0.429860  -0.160454
    C   C45   0.652500  0.362570  0.434600  -0.224588
    C   C46   0.688420  0.357540  0.475510  0.318418
    C   C47   0.742320  0.406610  0.512990  -0.224370
    C   C48   0.760980  0.459060  0.508440  -0.149849
    C   C49   0.524300  0.203850  0.459290  0.067167
    C   C50   0.571080  0.252610  0.508830  -0.129493
    C   C51   0.618870  0.285930  0.513930  -0.248457
    C   C52   0.620530  0.270870  0.469720  0.353242
    C   C53   0.573100  0.223020  0.419620  -0.249224
    C   C54   0.525370  0.189540  0.414610  -0.154564
    C   C55   0.798720  0.617520  0.449620  0.054932
    C   C56   0.783520  0.560830  0.415380  -0.117502
    C   C57   0.757720  0.509820  0.419440  -0.199765
    C   C58   0.747200  0.515110  0.457950  0.131213
    C   C59   0.761170  0.571420  0.491330  -0.173945
    C   C60   0.786650  0.622410  0.487060  -0.147993
    C   C61   0.797970  0.120320  0.383310  0.034017
    C   C62   0.810370  0.176330  0.385100  -0.143097
    C   C63   0.778950  0.198140  0.387480  -0.165162
    C   C64   0.734910  0.163910  0.387890  0.105881
    C   C65   0.718420  0.104640  0.378900  -0.145161
    C   C66   0.749790  0.082810  0.376430  -0.161145
    C   C67   0.381460  0.117020  0.452900  0.036849
    C   C68   0.425200  0.113430  0.483360  -0.109993
    C   C69   0.471140  0.139670  0.483810  -0.192894
    C   C70   0.473610  0.169680  0.453800  0.105580
    C   C71   0.428760  0.170480  0.421260  -0.176577
    C   C72   0.382880  0.144210  0.420750  -0.125815
    H   H25   0.746620  0.189380  0.481300  0.134225
    H   H26   0.720200  0.249910  0.520070  0.142531
    H   H27   0.649140  0.265730  0.378080  0.139180
    H   H28   0.676470  0.206220  0.339800  0.126166
    H   H29   0.643930  0.417710  0.397250  0.114672
    H   H30   0.610760  0.325150  0.405330  0.137529
    H   H31   0.770090  0.403280  0.544790  0.134933
    H   H32   0.803100  0.496040  0.536820  0.119455
    H   H33   0.570380  0.264700  0.543370  0.121668
    H   H34   0.655070  0.322760  0.552540  0.136591
    H   H35   0.573110  0.211930  0.384700  0.141098
    H   H36   0.489220  0.152510  0.376020  0.116907
    H   H37   0.792720  0.556560  0.386420  0.116422
    H   H38   0.747170  0.466500  0.393610  0.124751
    H   H39   0.753130  0.575840  0.521140  0.115807
    H   H40   0.797700  0.665830  0.513300  0.108017
    H   H41   0.846850  0.205090  0.389200  0.117210
    H   H42   0.791270  0.243460  0.393160  0.123644
    H   H43   0.683570  0.077220  0.377710  0.102366
    H   H44   0.739140  0.038810  0.373680  0.117792
    H   H45   0.424220  0.091940  0.507860  0.099582
    H   H46   0.505300  0.138040  0.508460  0.114762
    H   H47   0.430190  0.193300  0.397800  0.121003
    H   H48   0.349290  0.147190  0.397100  0.104649
    C   C73   0.364770  0.876610  0.017600  0.092669
    C   C74   0.415020  0.902050  0.065100  -0.197190
    C   C75   0.443460  0.874330  0.068580  -0.190660
    C   C76   0.421790  0.820800  0.024780  0.348048
    C   C77   0.371770  0.795980  0.976770  -0.231152
    C   C78   0.343610  0.823970  0.973250  -0.183468
    N   N3    0.449920  0.790540  0.030440  -0.509515
    C   C79   0.349590  0.605350  0.983820  0.037769
    C   C80   0.358770  0.620730  0.948280  -0.143152
    C   C81   0.392540  0.681400  0.963560  -0.240757
    C   C82   0.417450  0.727340  0.014730  0.360531
    C   C83   0.408830  0.711610  0.050350  -0.239327
    C   C84   0.375150  0.651020  0.035060  -0.125608
    C   C85   0.564780  0.846360  0.994720  0.066308
    C   C86   0.577650  0.839490  0.040240  -0.147441
    C   C87   0.539190  0.819650  0.050920  -0.239074
    C   C88   0.487540  0.806630  0.016390  0.361206
    C   C89   0.474240  0.812270  0.970020  -0.234910
    C   C90   0.512780  0.832160  0.959410  -0.170930
    C   C91   0.246950  0.422530  0.944180  0.067368
    C   C92   0.233370  0.464590  0.954610  -0.140516
    C   C93   0.266030  0.523790  0.966020  -0.183099
    C   C94   0.312680  0.541540  0.967280  0.112700
    C   C95   0.325410  0.499030  0.955310  -0.148660
    C   C96   0.292660  0.439760  0.943750  -0.160633
    C   C97   0.255740  0.932130  0.994910  -0.041865
    C   C98   0.262600  0.901270  0.024360  -0.121036
    C   C99   0.300750  0.886350  0.034640  -0.201395
    C   C100  0.332210  0.902000  0.015460  0.204295
    C   C101  0.327930  0.936320  0.989110  -0.276976
    C   C102  0.290010  0.951630  0.979110  -0.047936
    C   C103  0.686860  0.906370  0.967290  0.062035
    C   C104  0.693830  0.945190  0.011270  -0.151499
    C   C105  0.653430  0.926130  0.019570  -0.157632
    C   C106  0.605710  0.868100  0.983930  0.117391
    C   C107  0.598030  0.830000  0.939060  -0.189181
    C   C108  0.638430  0.849040  0.930780  -0.132926
    H   H49   0.431580  0.942650  0.099560  0.119413
    H   H50   0.481900  0.893730  0.105630  0.129229
    H   H51   0.354570  0.754870  0.942510  0.146933
    H   H52   0.304740  0.804000  0.936440  0.123606
    H   H53   0.339140  0.585800  0.908600  0.116935
    H   H54   0.398120  0.692680  0.935280  0.133933
    H   H55   0.427860  0.746590  0.089760  0.133588
    H   H56   0.368680  0.639550  0.062930  0.116790
    H   H57   0.617520  0.849690  0.067430  0.120645
    H   H58   0.549710  0.815220  0.086510  0.132430
    H   H59   0.434170  0.800710  0.942020  0.143682
    H   H60   0.502310  0.836760  0.923880  0.122392
    H   H61   0.198220  0.451790  0.955070  0.113163
    H   H62   0.255620  0.556140  0.974780  0.123318
    H   H63   0.361250  0.512250  0.956050  0.112596
    H   H64   0.303300  0.407540  0.935410  0.115023
    H   H65   0.236590  0.886270  0.037000  0.103890
    H   H66   0.304170  0.860290  0.055440  0.122716
    H   H67   0.352570  0.949230  0.974720  0.125250
    H   H68   0.285560  0.976200  0.957000  0.094652
    H   H69   0.730930  0.989650  0.039520  0.104146
    H   H70   0.659490  0.956100  0.054040  0.117083
    H   H71   0.561300  0.785170  0.911290  0.128549
    H   H72   0.632720  0.818660  0.896790  0.113116
    C   C109  0.408080  0.896800  0.536690  0.089222
    C   C110  0.456910  0.925510  0.586780  -0.177611
    C   C111  0.488460  0.901340  0.595770  -0.204449
    C   C112  0.471370  0.848110  0.554960  0.368123
    C   C113  0.423130  0.820380  0.504200  -0.242761
    C   C114  0.391840  0.844830  0.495180  -0.171979
    N   N4    0.501730  0.820620  0.566580  -0.514078
    C   C115  0.403050  0.635920  0.522130  0.030508
    C   C116  0.415600  0.650500  0.488070  -0.143214
    C   C117  0.449110  0.711030  0.502880  -0.242051
    C   C118  0.470220  0.757660  0.551980  0.357459
    C   C119  0.458390  0.742770  0.586270  -0.244318
    C   C120  0.425080  0.682290  0.571520  -0.116215
    C   C121  0.625410  0.876020  0.542210  0.061022
    C   C122  0.635110  0.871650  0.588260  -0.144396
    C   C123  0.593960  0.852470  0.595490  -0.245089
    C   C124  0.542770  0.837630  0.556930  0.369395
    C   C125  0.532910  0.841470  0.510410  -0.249506
    C   C126  0.574120  0.860680  0.503250  -0.160569
    C   C127  0.299730  0.453110  0.482100  0.053837
    C   C128  0.285060  0.494590  0.490080  -0.130551
    C   C129  0.318060  0.553800  0.501750  -0.181429
    C   C130  0.366210  0.572180  0.505830  0.118093
    C   C131  0.380180  0.530270  0.496470  -0.158535
    C   C132  0.347020  0.470950  0.484550  -0.150583
    C   C133  0.290970  0.941800  0.503330  -0.041484
    C   C134  0.301680  0.916980  0.537620  -0.118310
    C   C135  0.341800  0.904950  0.550530  -0.167077
    C   C136  0.371410  0.917400  0.529120  0.124163
    C   C137  0.362420  0.944690  0.496730  -0.192402
    C   C138  0.322440  0.957050  0.484010  -0.080461
    C   C139  0.751160  0.932620  0.519450  0.054023
    C   C140  0.730280  0.968080  0.524580  -0.163656
    C   C141  0.689180  0.949600  0.531990  -0.156851
    C   C142  0.668690  0.895550  0.534330  0.116967
    C   C143  0.689580  0.860130  0.529190  -0.169251
    C   C144  0.730580  0.878530  0.521730  -0.136410
    H   H73   0.469760  0.965720  0.619040  0.117769
    H   H74   0.525550  0.923040  0.634860  0.125203
    H   H75   0.409530  0.779570  0.472120  0.151205
    H   H76   0.354160  0.822380  0.456370  0.121350
    H   H77   0.398740  0.615030  0.449820  0.117343
    H   H78   0.457310  0.721640  0.475650  0.138301
    H   H79   0.474540  0.778290  0.624130  0.134218
    H   H80   0.416080  0.671470  0.598330  0.114286
    H   H81   0.674600  0.883370  0.618550  0.117036
    H   H82   0.601930  0.849680  0.631350  0.136026
    H   H83   0.493380  0.828700  0.479520  0.140930
    H   H84   0.566080  0.863180  0.467250  0.121675
    H   H85   0.248690  0.481330  0.488340  0.106524
    H   H86   0.306660  0.585650  0.508400  0.121235
    H   H87   0.417180  0.543950  0.499420  0.113613
    H   H88   0.358520  0.439160  0.478070  0.114707
    H   H89   0.277700  0.905160  0.552820  0.094449
    H   H90   0.348630  0.884050  0.575710  0.121323
    H   H91   0.385470  0.954970  0.480420  0.113166
    H   H92   0.314930  0.976900  0.458040  0.087096
    H   H93   0.745940  0.009920  0.522950  0.112630
    H   H94   0.673400  0.977330  0.536080  0.119114
    H   H95   0.673840  0.818200  0.530680  0.116673
    H   H96   0.746120  0.850600  0.517360  0.102971
    Zn  Zn1   0.111830  0.114240  0.977270  1.175346
    Zn  Zn2   0.023400  0.063020  0.860960  1.337128
    O   O1    0.021190  0.961180  0.784750  -0.668622
    O   O2    0.998940  0.030940  0.784190  -0.701895
    O   O3    0.021850  0.896400  0.863490  -0.712914
    C   C145  0.169240  0.077000  0.947880  0.784801
    O   O4    0.973650  0.981360  0.845110  -1.018214
    C   C146  0.121920  0.192420  0.926180  0.662458
    O   O5    0.171950  0.106220  0.989260  -0.742177
    O   O6    0.125480  0.051760  0.899750  -0.735820
    O   O7    0.039220  0.077960  0.933960  -1.173738
    O   O8    0.065710  0.981720  0.940230  -0.715547
    O   O9    0.078030  0.145780  0.879390  -0.684385
    O   O10   0.136770  0.189540  0.970850  -0.645751
    Zn  Zn3   0.876270  0.886870  0.870580  1.133352
    Zn  Zn4   0.972270  0.929930  0.974320  1.369903
    Zn  Zn5   0.992860  0.996140  0.915540  1.468665
    C   C147  0.876270  0.805420  0.919820  0.817313
    C   C148  0.850200  0.940070  0.932640  0.736734
    O   O11   0.921520  0.015440  0.892330  -0.770628
    Zn  Zn6   0.978270  0.042470  0.004470  1.318964
    O   O12   0.928480  0.845250  0.957560  -0.696941
    O   O13   0.850170  0.811680  0.878280  -0.682713
    O   O14   0.832120  0.910700  0.882890  -0.626355
    O   O15   0.898020  0.955220  0.970720  -0.844155
    C   C149  0.005990  0.005490  0.085750  0.896774
    O   O16   0.946600  0.914270  0.898090  -1.205541
    C   C150  0.919450  0.057250  0.920590  0.879553
    O   O17   0.002320  0.960320  0.053790  -0.710886
    O   O18   0.005060  0.048970  0.074920  -0.763536
    O   O19   0.946170  0.079290  0.972320  -0.739367
    O   O20   0.012530  0.011210  0.985750  -1.187110
    Zn  Zn7   0.991880  0.928520  0.821680  1.169362
    C   C151  0.010250  0.994630  0.763850  0.795350
    C   C152  0.063230  0.934570  0.913290  0.940459
    H   H97   0.051830  0.033560  0.013540  0.401172
    H   H98   0.935240  0.966030  0.819700  0.330050
    Zn  Zn8   0.160470  0.137040  0.504520  1.161879
    Zn  Zn9   0.070540  0.092790  0.391030  1.282019
    O   O21   0.050800  0.987380  0.300010  -0.737841
    O   O22   0.039050  0.065700  0.312480  -0.567021
    O   O23   0.062730  0.921090  0.379020  -0.689893
    C   C153  0.209200  0.096470  0.463690  0.749482
    O   O24   0.017770  0.011460  0.373080  -1.015742
    C   C154  0.171760  0.220490  0.458900  0.703244
    O   O25   0.216690  0.125330  0.508420  -0.710903
    O   O26   0.164420  0.076060  0.418080  -0.685844
    O   O27   0.088430  0.104450  0.464290  -1.147450
    O   O28   0.109220  0.003070  0.459260  -0.719907
    O   O29   0.128480  0.174690  0.411340  -0.691258
    O   O30   0.186620  0.214900  0.502350  -0.662677
    Zn  Zn10  0.923070  0.917300  0.399780  1.150488
    Zn  Zn11  0.019760  0.948800  0.497150  1.399047
    Zn  Zn12  0.040060  0.022100  0.443190  1.467748
    C   C155  0.919400  0.828770  0.441320  0.778711
    C   C156  0.905310  0.970930  0.470690  0.771107
    O   O31   0.972970  0.046940  0.429570  -0.702988
    Zn  Zn13  0.034980  0.067080  0.539240  1.317046
    O   O32   0.972620  0.862970  0.475130  -0.685307
    O   O33   0.893570  0.839600  0.403230  -0.669177
    O   O34   0.884740  0.945240  0.419790  -0.675683
    O   O35   0.952760  0.982080  0.505170  -0.873830
    C   C157  0.052370  0.016420  0.609660  0.980012
    O   O36   0.991460  0.939550  0.422270  -1.225368
    C   C158  0.973230  0.087160  0.462500  0.774456
    O   O37   0.047490  0.972010  0.575480  -0.773602
    O   O38   0.062850  0.066830  0.607000  -0.752263
    O   O39   0.006130  0.109590  0.514020  -0.736270
    O   O40   0.062950  0.032000  0.513180  -1.195629
    Zn  Zn14  0.030980  0.956570  0.342970  1.187518
    C   C159  0.037070  0.021340  0.282100  0.765453
    C   C160  0.104440  0.955900  0.429080  0.908890
    H   H99   0.102270  0.051380  0.538730  0.399659
    H   H100  0.979880  0.999220  0.350070  0.305824
    C   C161  0.045150  0.009110  0.650790  -0.197454
    C   C162  0.073380  0.059780  0.700070  -0.184503
    C   C163  0.060830  0.054830  0.736110  -0.079716
    C   C164  0.019900  0.999150  0.723510  -0.114952
    C   C165  0.991120  0.947610  0.673750  0.333054
    C   C166  0.004770  0.952940  0.638170  -0.085997
    H   H101  0.083340  0.094320  0.774240  0.147030
    H   H102  0.982110  0.914010  0.599590  0.104835
    H   H103  0.104760  0.103290  0.710270  0.131669
    N   N5    0.949320  0.893730  0.659170  -0.799829
    H   H104  0.935260  0.889430  0.682690  0.291248
    H   H105  0.929170  0.855710  0.622910  0.362912
    C   C167  0.013240  0.008600  0.135390  -0.004383
    C   C168  0.055550  0.007030  0.171840  -0.254089
    C   C169  0.062940  0.011130  0.219500  -0.019379
    C   C170  0.027280  0.015370  0.230760  -0.293299
    C   C171  0.982820  0.014060  0.192730  0.533679
    C   C172  0.977490  0.013010  0.146200  -0.288654
    H   H106  0.096770  0.011570  0.248030  0.171199
    H   H107  0.944360  0.013460  0.117530  0.140622
    H   H108  0.083330  0.003700  0.163690  0.120534
    N   N6    0.944010  0.010970  0.199400  -0.966749
    H   H109  0.942420  0.002960  0.229320  0.365288
    H   H110  0.912850  0.012880  0.172390  0.428003
    C   C173  0.259970  0.318520  0.505970  -0.132962
    C   C174  0.204870  0.279050  0.463450  -0.023630
    C   C175  0.181490  0.296160  0.425920  -0.082180
    C   C176  0.212660  0.352520  0.431460  -0.173747
    C   C177  0.267440  0.392290  0.474540  0.124155
    C   C178  0.290980  0.374850  0.511550  -0.147323
    H   H111  0.278790  0.305610  0.534760  0.129272
    H   H112  0.139080  0.266290  0.392960  0.107439
    H   H113  0.194160  0.365450  0.402530  0.113792
    H   H114  0.333190  0.405250  0.545000  0.107624
    C   C179  0.783740  0.955400  0.464500  -0.222548
    C   C180  0.793950  0.951430  0.510830  0.175569
    C   C181  0.843570  0.960880  0.546900  -0.157804
    C   C182  0.881280  0.970510  0.535200  -0.129529
    C   C183  0.869590  0.970460  0.487080  -0.009273
    C   C184  0.821420  0.964990  0.452710  -0.092312
    H   H115  0.745910  0.949140  0.436810  0.126721
    H   H116  0.852250  0.959050  0.583270  0.092296
    H   H117  0.918670  0.975830  0.562690  0.142804
    H   H118  0.812580  0.966770  0.416300  0.125833
    C   C185  0.240140  0.981820  0.520650  -0.211783
    C   C186  0.244030  0.946980  0.484230  0.289475
    C   C187  0.201350  0.913660  0.429870  -0.279678
    C   C188  0.155080  0.914960  0.412030  0.060433
    C   C189  0.150970  0.949750  0.448430  -0.317554
    C   C190  0.193710  0.982840  0.502960  0.002057
    H   H119  0.272960  0.007830  0.562710  0.113750
    H   H120  0.203860  0.886340  0.401470  0.130326
    H   H121  0.122870  0.889710  0.369830  0.076112
    H   H122  0.191270  0.009930  0.531560  0.085980
    C   C191  0.240290  0.344800  0.974070  -0.132566
    C   C192  0.215510  0.361890  0.937360  0.116649
    C   C193  0.160240  0.322150  0.895600  -0.180941
    C   C194  0.129790  0.266320  0.891270  -0.091104
    C   C195  0.154350  0.249800  0.928780  0.020395
    C   C196  0.209950  0.289050  0.969760  -0.165960
    H   H123  0.282910  0.375130  0.006430  0.109098
    H   H124  0.140800  0.334790  0.866880  0.115513
    H   H125  0.086990  0.236520  0.859410  0.112437
    H   H126  0.229640  0.276480  0.998420  0.134085
    C   C197  0.779740  0.931640  0.000350  -0.126710
    C   C198  0.731850  0.923520  0.961880  0.127905
    C   C199  0.725430  0.927140  0.916350  -0.155896
    C   C200  0.765300  0.935480  0.907950  -0.154261
    C   C201  0.811940  0.940200  0.945030  -0.016901
    C   C202  0.819650  0.940100  0.992080  -0.120519
    H   H127  0.785230  0.929320  0.035800  0.078020
    H   H128  0.689000  0.922020  0.886880  0.109509
    H   H129  0.759270  0.936690  0.872030  0.149632
    H   H130  0.855530  0.944140  0.021280  0.142518
    C   C203  0.199570  0.964610  0.009520  -0.185994
    C   C204  0.208210  0.936260  0.974340  0.253930
    C   C205  0.169110  0.907300  0.919240  -0.245509
    C   C206  0.121400  0.905640  0.899420  0.066266
    C   C207  0.112110  0.932950  0.934510  -0.304988
    C   C208  0.151670  0.962850  0.989720  -0.044929
    H   H131  0.229700  0.987490  0.052150  0.111120
    H   H132  0.175360  0.885210  0.891740  0.118601
    H   H133  0.091960  0.883760  0.856750  0.065202
    H   H134  0.145400  0.984790  0.017250  0.099572
    C   C209  0.859800  0.097670  0.371060  -0.147783
    C   C210  0.840590  0.108140  0.401590  0.146647
    C   C211  0.865000  0.111750  0.451870  -0.176621
    C   C212  0.908730  0.105880  0.471930  -0.061821
    C   C213  0.928300  0.095590  0.441680  -0.010257
    C   C214  0.903380  0.091050  0.390920  -0.198584
    H   H135  0.841330  0.095160  0.332290  0.107652
    H   H136  0.850490  0.120000  0.475740  0.122280
    H   H137  0.926870  0.108360  0.510710  0.092368
    H   H138  0.918030  0.083020  0.367150  0.141706
    C   C215  0.880630  0.720430  0.493000  -0.137550
    C   C216  0.829150  0.672050  0.447690  0.110929
    C   C217  0.807410  0.675060  0.400160  -0.160014
    C   C218  0.837040  0.725770  0.397810  -0.083973
    C   C219  0.888680  0.774220  0.443120  -0.096683
    C   C220  0.910170  0.771320  0.490800  -0.107511
    H   H139  0.897860  0.718450  0.529830  0.099023
    H   H140  0.767620  0.638030  0.365020  0.109244
    H   H141  0.819910  0.727230  0.360730  0.115615
    H   H142  0.949570  0.808640  0.526280  0.127846
    C   C221  0.283760  0.056420  0.415160  -0.171565
    C   C222  0.337410  0.099480  0.459570  0.194385
    C   C223  0.348080  0.133200  0.508120  -0.265769
    C   C224  0.305710  0.128990  0.510620  -0.097359
    C   C225  0.252330  0.091050  0.464490  -0.004541
    C   C226  0.241330  0.052120  0.417600  -0.095960
    H   H143  0.275070  0.028660  0.377980  0.085086
    H   H144  0.389380  0.165540  0.543020  0.133310
    H   H145  0.314710  0.157640  0.547660  0.124656
    H   H146  0.200110  0.020280  0.382450  0.134005
    C   C227  0.848260  0.137620  0.900070  -0.154081
    C   C228  0.794850  0.088970  0.859020  0.146424
    C   C229  0.784400  0.032120  0.832000  -0.285534
    C   C230  0.826410  0.022860  0.848990  0.057149
    C   C231  0.878940  0.070220  0.893480  -0.170640
    C   C232  0.890080  0.128290  0.917120  -0.117557
    H   H147  0.856900  0.181880  0.920820  0.118343
    H   H148  0.743450  0.994500  0.799610  0.133328
    H   H149  0.817490  0.978080  0.829620  0.069303
    H   H150  0.930740  0.165530  0.950610  0.136460
    C   C233  0.835120  0.701170  0.973950  -0.155410
    C   C234  0.792110  0.646450  0.926890  0.152759
    C   C235  0.776730  0.643920  0.877420  -0.188015
    C   C236  0.804260  0.695690  0.875000  -0.072783
    C   C237  0.847540  0.750460  0.922120  -0.131297
    C   C238  0.862710  0.752920  0.971600  -0.067043
    H   H151  0.847380  0.703480  0.012330  0.099478
    H   H152  0.743580  0.601840  0.840880  0.114001
    H   H153  0.792230  0.693060  0.836570  0.111454
    H   H154  0.895580  0.795020  0.008230  0.105114
    C   C239  0.216470  0.053770  0.910470  -0.205559
    C   C240  0.216940  0.077810  0.955050  0.053017
    C   C241  0.264870  0.107760  0.006370  -0.073698
    C   C242  0.313000  0.120060  0.012770  -0.246936
    C   C243  0.313520  0.102300  0.968000  0.125281
    C   C244  0.264640  0.066240  0.916960  -0.138133
    H   H155  0.179330  0.027880  0.870680  0.168403
    H   H156  0.265390  0.123770  0.041260  0.108829
    H   H157  0.350340  0.146180  0.052450  0.122659
    H   H158  0.264430  0.050840  0.882170  0.095868
