# Generated by REPEAT Assigner based on pymatgen
data_DB7-ddmof_23125
_audit_creation_date              2022-05-24
_audit_creation_method            REPEAT_Assigner
_cell_length_a                    16.993680
_cell_length_b                    19.016830
_cell_length_c                    45.783560
_cell_angle_alpha                 88.436850
_cell_angle_beta                  88.508940
_cell_angle_gamma                 107.986040
_cell_volume                      14058.176424
_symmetry_space_group_name_H-M    P1
_symmetry_Int_Tables_number       1
loop_
    _symmetry_equiv_pos_site_id
    _symmetry_equiv_pos_as_xyz
    1  x,y,z
loop_
    _atom_site_type_symbol
    _atom_site_label
    _atom_site_fract_x
    _atom_site_fract_y
    _atom_site_fract_z
    _atom_type_partial_charge
    C   C1    0.124160  0.069650  0.799690  0.754677
    C   C2    0.143950  0.937170  0.748600  0.669060
    C   C3    0.053690  0.678130  0.427810  0.613188
    C   C4    0.081530  0.602070  0.355510  0.993237
    C   C5    0.191620  0.848040  0.174000  0.544272
    C   C6    0.188740  0.599040  0.102480  0.849894
    C   C7    0.145410  0.130810  0.273050  0.542822
    C   C8    0.195950  0.342550  0.234940  0.806090
    C   C9    0.215990  0.473340  0.178380  -0.028130
    C   C10   0.223580  0.416970  0.219550  -0.114595
    C   C11   0.160910  0.451790  0.206640  -0.161422
    C   C12   0.208310  0.526480  0.219820  -0.072729
    C   C13   0.270720  0.490760  0.232990  0.133796
    C   C14   0.053510  0.892360  0.170540  -0.057738
    C   C15   0.084860  0.977550  0.165200  0.000025
    C   C16   0.025740  0.902900  0.202280  -0.120788
    C   C17   0.058170  0.987310  0.196840  0.126326
    C   C18   0.139340  0.895450  0.181490  0.034922
    C   C19   0.112170  0.904810  0.212950  -0.044903
    C   C20   0.144010  0.989640  0.207520  0.010855
    C   C21   0.171020  0.979660  0.175910  -0.135665
    C   C22   0.043250  0.534700  0.338490  -0.244390
    C   C23   0.063260  0.471330  0.301890  -0.096895
    C   C24   0.093210  0.480870  0.333450  0.132134
    C   C25   0.102660  0.967430  0.315660  0.068577
    C   C26   0.113530  0.986930  0.282540  -0.198936
    C   C27   0.150770  0.048560  0.322280  -0.115233
    C   C28   0.161760  0.067390  0.289220  0.266047
    C   C29   0.184700  0.948920  0.314440  -0.134208
    C   C30   0.195820  0.968120  0.281520  0.189633
    C   C31   0.062470  0.422420  0.987750  -0.120970
    C   C32   0.002110  0.390420  0.049540  -0.102168
    C   C33   0.056010  0.469540  0.039320  0.573509
    C   C34   0.113980  0.462940  0.013380  -0.185057
    C   C35   0.103770  0.510220  0.063320  -0.310937
    C   C36   0.142060  0.548540  0.081950  -0.190911
    C   C37   0.263220  0.547260  0.191700  0.013994
    C   C38   0.410590  0.119810  0.679720  0.938223
    C   C39   0.194470  0.879200  0.327600  0.557293
    C   C40   0.418880  0.822050  0.398010  0.992418
    C   C41   0.315650  0.599130  0.419030  0.735976
    C   C42   0.472530  0.796810  0.320360  0.421466
    C   C43   0.502190  0.720750  0.091760  0.698253
    C   C44   0.284150  0.618710  0.174260  0.720270
    C   C45   0.427330  0.915390  0.090090  1.052328
    C   C46   0.278430  0.437800  0.191440  -0.084154
    C   C47   0.326040  0.512620  0.204610  -0.003046
    C   C48   0.233170  0.029180  0.321360  0.004264
    C   C49   0.243930  0.049180  0.288100  -0.216635
    C   C50   0.460120  0.925020  0.476100  0.480501
    C   C51   0.407720  0.004980  0.510480  -0.284776
    C   C52   0.450010  0.891200  0.447400  -0.267772
    C   C53   0.398700  0.969970  0.480120  0.041943
    C   C54   0.437880  0.861250  0.424400  -0.296159
    C   C55   0.308830  0.382300  0.528490  -0.150493
    C   C56   0.366740  0.441300  0.547640  0.571318
    C   C57   0.444460  0.505410  0.500930  -0.015813
    C   C58   0.352670  0.499140  0.495700  0.479955
    C   C59   0.300590  0.416270  0.497990  -0.103064
    C   C60   0.373160  0.407950  0.576550  -0.202121
    C   C61   0.343320  0.531870  0.466960  -0.359157
    C   C62   0.321870  0.540030  0.520280  -0.281034
    C   C63   0.330160  0.506070  0.550780  -0.008525
    C   C64   0.332310  0.560830  0.444350  -0.053250
    C   C65   0.315100  0.981740  0.735640  0.049847
    C   C66   0.339790  0.067470  0.732360  -0.165249
    C   C67   0.325810  0.978050  0.701830  -0.128879
    C   C68   0.348890  0.063050  0.699120  0.060850
    C   C69   0.223620  0.977160  0.732140  -0.073841
    C   C70   0.233310  0.972280  0.698760  0.050317
    C   C71   0.257060  0.057130  0.695790  -0.248279
    C   C72   0.247800  0.062010  0.729050  0.113565
    C   C73   0.382130  0.050970  0.963180  0.022406
    C   C74   0.447410  0.008170  0.006980  0.472617
    C   C75   0.367100  0.018970  0.995160  -0.204742
    C   C76   0.434430  0.977590  0.037390  -0.143744
    C   C77   0.428140  0.950880  0.061910  -0.415244
    C   C78   0.228760  0.171330  0.832170  0.035053
    C   C79   0.264070  0.247750  0.815600  -0.221821
    C   C80   0.312230  0.156630  0.827020  -0.086125
    C   C81   0.346840  0.231840  0.810350  0.392302
    C   C82   0.199510  0.134690  0.803100  -0.016362
    C   C83   0.282740  0.120190  0.798100  0.128322
    C   C84   0.316600  0.195510  0.781410  -0.278273
    C   C85   0.232640  0.210040  0.786440  -0.005945
    C   C86   0.375400  0.377200  0.599730  -0.437837
    C   C87   0.437060  0.271060  0.813110  0.549032
    C   C88   0.569580  0.470520  0.890820  0.929216
    C   C89   0.510080  0.175620  0.873280  0.971536
    C   C90   0.375060  0.335540  0.626310  1.082774
    C   C91   0.486000  0.086870  0.605810  0.963488
    C   C92   0.523470  0.972330  0.164420  0.689563
    C   C93   0.585510  0.022860  0.216630  -0.173116
    C   C94   0.584450  0.024980  0.183050  0.116118
    C   C95   0.615310  0.108980  0.216220  0.045728
    C   C96   0.612670  0.110220  0.182200  -0.104918
    C   C97   0.569000  0.888290  0.277710  -0.402773
    C   C98   0.601600  0.965090  0.291370  0.071004
    C   C99   0.550640  0.852470  0.308660  0.586669
    C   C100  0.582510  0.928510  0.322330  -0.265012
    C   C101  0.637690  0.843610  0.309300  -0.197916
    C   C102  0.441920  0.864090  0.500870  -0.197157
    C   C103  0.475510  0.984650  0.527770  0.506104
    C   C104  0.450990  0.899200  0.531280  -0.093795
    C   C105  0.482790  0.018500  0.556460  -0.188277
    C   C106  0.558470  0.012930  0.509660  -0.223899
    C   C107  0.549390  0.977790  0.479190  -0.054218
    C   C108  0.485730  0.048290  0.579430  -0.326041
    C   C109  0.452750  0.471360  0.531520  -0.242832
    C   C110  0.473040  0.062710  0.952530  0.502512
    C   C111  0.516190  0.084150  0.005400  -0.167285
    C   C112  0.487430  0.095170  0.922420  -0.286008
    C   C113  0.474770  0.955120  0.986630  -0.269896
    C   C114  0.489850  0.987180  0.954640  -0.037525
    C   C115  0.531270  0.116080  0.973490  -0.086408
    C   C116  0.498610  0.127920  0.898950  -0.271608
    C   C117  0.459380  0.538040  0.982720  -0.029819
    C   C118  0.542820  0.571710  0.965540  0.497404
    C   C119  0.563160  0.692090  0.991650  -0.240342
    C   C120  0.548490  0.632280  0.016730  0.681094
    C   C121  0.462720  0.573600  0.012850  -0.255099
    C   C122  0.541430  0.537230  0.937240  -0.285465
    C   C123  0.548030  0.665680  0.045170  -0.477053
    C   C124  0.616230  0.593850  0.014120  -0.047646
    C   C125  0.559720  0.656360  0.961470  -0.067875
    C   C126  0.548240  0.507240  0.915020  -0.259908
    C   C127  0.535170  0.691960  0.067640  0.004435
    C   C128  0.612900  0.558110  0.983940  -0.189089
    C   C129  0.624020  0.472140  0.693520  0.432506
    C   C130  0.676520  0.023210  0.214640  0.052737
    C   C131  0.675070  0.025340  0.181090  -0.185495
    C   C132  0.705820  0.108500  0.213990  -0.131205
    C   C133  0.703950  0.110540  0.180360  0.125510
    C   C134  0.657470  0.880630  0.278180  -0.004490
    C   C135  0.688850  0.956650  0.292010  0.104516
    C   C136  0.670070  0.920390  0.322910  0.043241
    C   C137  0.613880  0.643120  0.718530  -0.072229
    C   C138  0.581890  0.563220  0.732190  -0.099886
    C   C139  0.736430  0.199280  0.830410  0.789480
    C   C140  0.731790  0.214630  0.673910  0.519703
    C   C141  0.687440  0.405400  0.619890  1.048059
    C   C142  0.763760  0.021850  0.285370  0.728078
    C   C143  0.784390  0.146730  0.228960  0.705335
    C   C144  0.671370  0.618820  0.696910  0.006629
    C   C145  0.639850  0.540200  0.710740  0.217273
    C   C146  0.683660  0.662080  0.740530  -0.129311
    C   C147  0.652120  0.583530  0.754460  0.010561
    C   C148  0.697540  0.048850  0.833770  -0.043887
    C   C149  0.681360  0.025150  0.801780  -0.146737
    C   C150  0.709480  0.559470  0.732840  -0.002035
    C   C151  0.798820  0.334760  0.934020  0.839364
    C   C152  0.715890  0.732300  0.756180  0.870716
    C   C153  0.758560  0.513190  0.521090  -0.253325
    C   C154  0.734300  0.439030  0.593860  -0.467575
    C   C155  0.748270  0.079590  0.680360  -0.243744
    C   C156  0.741130  0.638570  0.719090  -0.092728
    C   C157  0.747230  0.127330  0.822410  0.045546
    C   C158  0.730660  0.103960  0.790600  0.095797
    C   C159  0.994870  0.644540  0.451120  0.046820
    C   C160  0.832980  0.465650  0.869240  0.850283
    C   C161  0.771670  0.940230  0.785180  0.685947
    C   C162  0.807770  0.553790  0.493200  -0.049956
    C   C163  0.772330  0.468990  0.571960  -0.074867
    C   C164  0.780170  0.164120  0.681790  0.296515
    C   C165  0.775680  0.073340  0.711970  0.065848
    C   C166  0.807430  0.158400  0.713280  -0.119044
    C   C167  0.778650  0.027100  0.832630  -0.012978
    C   C168  0.827880  0.106960  0.821500  -0.065812
    C   C169  0.761870  0.004780  0.800750  0.057348
    C   C170  0.811380  0.083460  0.789630  -0.083004
    C   C171  0.818610  0.507140  0.545380  0.369258
    C   C172  0.834720  0.080370  0.668410  -0.084586
    C   C173  0.866430  0.345810  0.953180  -0.143518
    C   C174  0.822150  0.590130  0.848470  -0.069207
    C   C175  0.971300  0.331700  0.300450  0.434126
    C   C176  0.936740  0.460030  0.317630  -0.141616
    C   C177  0.872780  0.586470  0.552340  -0.084815
    C   C178  0.902230  0.576120  0.497970  0.735343
    C   C179  0.921840  0.626970  0.524510  -0.249785
    C   C180  0.876100  0.464430  0.533350  -0.141287
    C   C181  0.866070  0.166000  0.669660  -0.049380
    C   C182  0.861670  0.074690  0.700020  0.123405
    C   C183  0.893790  0.159370  0.701370  -0.063354
    C   C184  0.916760  0.365620  0.971720  -0.342376
    C   C185  0.947140  0.472440  0.002740  -0.018381
    C   C186  0.888400  0.654050  0.862080  -0.126628
    C   C187  0.874900  0.539240  0.854670  0.001413
    C   C188  0.919040  0.559370  0.824400  -0.039991
    C   C189  0.866160  0.611060  0.818200  -0.108751
    C   C190  0.903400  0.021400  0.711190  0.677213
    C   C191  0.967340  0.470380  0.349420  -0.031967
    C   C192  0.925170  0.504910  0.505520  -0.132332
    C   C193  0.968650  0.400820  0.995830  0.552587
    C   C194  0.998120  0.512530  0.028160  -0.264818
    C   C195  0.941430  0.602880  0.868340  -0.094834
    C   C196  0.987550  0.406610  0.312820  0.289744
    C   C197  0.950600  0.614400  0.471760  -0.513614
    C   C198  0.932370  0.675220  0.831810  0.299302
    C   C199  0.946340  0.752300  0.820330  0.430254
    C   C200  0.018510  0.044000  0.205500  0.654772
    C   C201  0.017500  0.416330  0.344350  -0.146869
    C   C202  0.013300  0.526030  0.306940  -0.027170
    C   C203  0.950660  0.349920  0.023910  -0.150045
    C   C204  0.986170  0.624870  0.837830  -0.128643
    H   H1    0.193310  0.466650  0.155780  0.095874
    H   H2    0.092620  0.426120  0.207550  0.073400
    H   H3    0.179430  0.563290  0.231440  0.071580
    H   H4    0.016920  0.851760  0.155190  0.024440
    H   H5    0.073330  0.007910  0.145540  0.037153
    H   H6    0.122200  0.872530  0.232240  0.141731
    H   H7    0.184190  0.029160  0.222290  -0.001638
    H   H8    0.231150  0.011240  0.164980  0.065996
    H   H9    0.102860  0.471450  0.282190  0.063582
    H   H10   0.157930  0.489320  0.339920  -0.009841
    H   H11   0.044210  0.933460  0.327020  -0.007676
    H   H12   0.063210  0.969270  0.266810  0.065484
    H   H13   0.132110  0.082100  0.339000  0.038913
    H   H14   0.079900  0.372030  0.982900  0.038339
    H   H15   0.959540  0.393270  0.068050  0.032477
    H   H16   0.042300  0.358160  0.057610  0.028459
    H   H17   0.156240  0.431980  0.020760  0.046167
    H   H18   0.153460  0.518930  0.005490  0.069164
    H   H19   0.966200  0.298280  0.019720  0.040597
    H   H20   0.053960  0.639910  0.833350  0.081334
    H   H21   0.293120  0.497280  0.255620  -0.021108
    H   H22   0.251380  0.666720  0.336150  0.378216
    H   H23   0.234490  0.810710  0.400800  0.363690
    H   H24   0.268280  0.790680  0.104890  0.328056
    H   H25   0.419260  0.772650  0.172690  0.392851
    H   H26   0.307200  0.400930  0.179810  0.058851
    H   H27   0.394290  0.538400  0.203680  0.020442
    H   H28   0.282650  0.045950  0.337470  0.047739
    H   H29   0.302070  0.083310  0.276610  0.089345
    H   H30   0.216750  0.935190  0.265170  0.068113
    H   H31   0.378050  0.825310  0.499240  0.081505
    H   H32   0.423760  0.066180  0.507570  0.063022
    H   H33   0.347240  0.985160  0.522890  0.076532
    H   H34   0.410500  0.014410  0.462710  -0.001026
    H   H35   0.333930  0.933410  0.478050  -0.002168
    H   H36   0.333700  0.335030  0.525770  0.014719
    H   H37   0.246380  0.359770  0.539420  0.046269
    H   H38   0.468260  0.476210  0.483710  0.015075
    H   H39   0.321620  0.385330  0.480720  0.048970
    H   H40   0.234250  0.410010  0.494390  0.035921
    H   H41   0.255950  0.536370  0.517200  0.088684
    H   H42   0.358370  0.599840  0.519250  0.091807
    H   H43   0.370710  0.549570  0.564290  0.006326
    H   H44   0.268210  0.486140  0.562220  0.018761
    H   H45   0.338560  0.950400  0.752270  0.027463
    H   H46   0.386480  0.105560  0.745800  0.059059
    H   H47   0.358550  0.943830  0.690440  0.068178
    H   H48   0.189180  0.933010  0.684820  0.039873
    H   H49   0.231640  0.087740  0.679440  0.103627
    H   H50   0.215430  0.097830  0.739370  0.049814
    H   H51   0.368160  0.104430  0.961940  -0.002659
    H   H52   0.338690  0.012450  0.948690  -0.001434
    H   H53   0.346160  0.057220  0.009150  0.047141
    H   H54   0.316580  0.965160  0.995920  0.057498
    H   H55   0.426420  0.900010  0.987170  0.089390
    H   H56   0.408040  0.547440  0.970180  0.028339
    H   H57   0.515320  0.720920  0.993120  0.083628
    H   H58   0.412560  0.599720  0.014760  0.067147
    H   H59   0.510180  0.667910  0.948560  0.027896
    H   H60   0.192010  0.160870  0.853130  0.021610
    H   H61   0.257110  0.300760  0.822910  0.086978
    H   H62   0.344540  0.133780  0.843810  0.033365
    H   H63   0.290670  0.066910  0.791630  0.013432
    H   H64   0.353030  0.207940  0.760410  0.100901
    H   H65   0.199200  0.231410  0.769580  0.059861
    H   H66   0.564140  0.022340  0.461760  0.022391
    H   H67   0.556000  0.275370  0.606600  0.372951
    H   H68   0.532110  0.272590  0.697960  0.367588
    H   H69   0.535410  0.986780  0.231260  0.099839
    H   H70   0.591060  0.143680  0.230860  0.038620
    H   H71   0.585880  0.145770  0.168620  0.054645
    H   H72   0.526400  0.873960  0.259300  0.141453
    H   H73   0.587210  0.015740  0.284030  0.038931
    H   H74   0.551260  0.948140  0.340550  0.102264
    H   H75   0.652010  0.793050  0.316810  0.066559
    H   H76   0.485340  0.830940  0.498580  0.056327
    H   H77   0.391450  0.877250  0.544150  0.031252
    H   H78   0.498800  0.882930  0.543520  0.040678
    H   H79   0.608330  0.998810  0.521480  0.064426
    H   H80   0.577620  0.074280  0.506760  0.066920
    H   H81   0.594890  0.946860  0.476460  0.026725
    H   H82   0.483410  0.564500  0.499470  0.027201
    H   H83   0.495680  0.514170  0.544660  0.056388
    H   H84   0.480580  0.425920  0.528910  0.056097
    H   H85   0.516070  0.531530  0.737360  0.065787
    H   H86   0.574860  0.078120  0.013720  0.048187
    H   H87   0.498220  0.123740  0.019580  0.058166
    H   H88   0.532580  0.946320  0.994510  0.074263
    H   H89   0.554820  0.993880  0.947310  0.025757
    H   H90   0.448590  0.947510  0.939940  0.007468
    H   H91   0.597120  0.125290  0.966600  0.039567
    H   H92   0.520630  0.171010  0.972480  0.016549
    H   H93   0.445750  0.477130  0.985920  0.017395
    H   H94   0.624500  0.734710  0.993680  0.068924
    H   H95   0.450450  0.529610  0.030470  0.059294
    H   H96   0.619450  0.681880  0.949050  0.030278
    H   H97   0.616430  0.275550  0.907620  0.431354
    H   H98   0.662670  0.389160  0.827590  0.389795
    H   H99   0.702450  0.985750  0.227350  0.043711
    H   H100  0.700770  0.990950  0.166760  0.050045
    H   H101  0.689040  0.861380  0.259950  0.043029
    H   H102  0.712120  0.933760  0.341520  0.018396
    H   H103  0.574740  0.678310  0.712820  0.072144
    H   H104  0.607010  0.550510  0.031840  0.028569
    H   H105  0.678450  0.634760  0.016610  0.017088
    H   H106  0.673840  0.581710  0.972050  0.037344
    H   H107  0.602450  0.497630  0.987270  0.022824
    H   H108  0.650770  0.035470  0.852150  0.059823
    H   H109  0.621200  0.991240  0.793450  0.072659
    H   H110  0.992760  0.519140  0.509150  0.037416
    H   H111  0.752950  0.146740  0.165300  0.013681
    H   H112  0.716480  0.543830  0.529080  0.075545
    H   H113  0.688050  0.047100  0.671630  0.099315
    H   H114  0.679150  0.632850  0.673090  0.047975
    H   H115  0.644750  0.569640  0.778300  0.024005
    H   H116  0.709850  0.134800  0.773060  -0.032067
    H   H117  0.718950  0.457010  0.515510  0.076898
    H   H118  0.736110  0.036150  0.729240  0.016308
    H   H119  0.749000  0.524710  0.738690  -0.004964
    H   H120  0.754370  0.576330  0.852660  0.118632
    H   H121  0.791740  0.516960  0.474320  0.014303
    H   H122  0.789290  0.603840  0.487900  0.007842
    H   H123  0.796590  0.191600  0.731630  0.049460
    H   H124  0.798400  0.994350  0.849780  0.016412
    H   H125  0.872050  0.450840  0.311040  0.076451
    H   H126  0.833060  0.618630  0.560960  0.047128
    H   H127  0.838840  0.407260  0.528020  0.044502
    H   H128  0.846490  0.047760  0.649980  0.060576
    H   H129  0.807030  0.669960  0.713850  0.029967
    H   H130  0.879960  0.458860  0.008660  0.021690
    H   H131  0.959760  0.510500  0.983050  0.024881
    H   H132  0.835050  0.614590  0.797410  0.088479
    H   H133  0.958300  0.111620  0.297850  0.414671
    H   H134  0.928160  0.470410  0.369210  0.077808
    H   H135  0.916900  0.584050  0.569610  0.034213
    H   H136  0.905520  0.678440  0.519840  0.062004
    H   H137  0.911410  0.467000  0.486910  0.035213
    H   H138  0.902560  0.204580  0.652060  0.047798
    H   H139  0.955320  0.517830  0.046210  0.055599
    H   H140  0.888120  0.141080  0.829680  0.051207
    H   H141  0.858530  0.098240  0.771400  0.054000
    H   H142  0.875710  0.693150  0.877750  0.082539
    H   H143  0.989850  0.251920  0.227400  0.417390
    H   H144  0.965600  0.871800  0.213300  0.074114
    H   H145  0.920250  0.459470  0.550240  0.051352
    H   H146  0.035090  0.569630  0.020580  0.065471
    H   H147  0.883550  0.333450  0.030240  0.039776
    H   H148  0.931010  0.519500  0.808980  0.052184
    H   H149  0.932260  0.820020  0.743560  0.421960
    H   H150  0.953850  0.191820  0.710210  0.056520
    H   H151  0.971930  0.598860  0.889200  0.070471
    H   H152  0.936710  0.967140  0.807350  0.416260
    H   H153  0.077250  0.459150  0.967690  0.030975
    H   H154  0.989360  0.643870  0.528520  0.074630
    H   H155  0.019230  0.371060  0.359920  0.077915
    H   H156  0.012160  0.571930  0.291620  0.074866
    O   O1    0.110840  0.013890  0.819150  -0.780343
    O   O2    0.084560  0.062430  0.774550  -0.718461
    O   O3    0.075080  0.936810  0.736660  -0.676234
    O   O4    0.144070  0.917670  0.776510  -0.667297
    O   O5    0.021910  0.797180  0.813760  -0.638522
    O   O6    0.028650  0.700740  0.403190  -0.678842
    O   O7    0.130770  0.678970  0.430370  -0.633853
    O   O8    0.119940  0.595010  0.379320  -0.736322
    O   O9    0.086680  0.668270  0.344780  -0.710072
    O   O10   0.126770  0.823510  0.333900  -0.575460
    O   O11   0.156950  0.775670  0.175320  -0.635835
    O   O12   0.151770  0.611340  0.126590  -0.705631
    O   O13   0.202900  0.284460  0.221420  -0.716410
    O   O14   0.153910  0.334360  0.259980  -0.675769
    O   O15   0.131830  0.184850  0.287630  -0.660379
    O   O16   0.140070  0.128890  0.244390  -0.550454
    O   O17   0.243230  0.665930  0.179490  -0.629557
    O   O18   0.340290  0.263760  0.626870  -0.720942
    O   O19   0.387550  0.172370  0.666910  -0.670232
    O   O20   0.278300  0.692360  0.353490  -1.141307
    O   O21   0.348710  0.592150  0.393360  -0.694094
    O   O22   0.278840  0.649740  0.422770  -0.638061
    O   O23   0.477880  0.747340  0.340230  -0.738962
    O   O24   0.401060  0.807850  0.315540  -0.623475
    O   O25   0.219170  0.778990  0.383750  -1.045476
    O   O26   0.396520  0.854220  0.375270  -0.738083
    O   O27   0.266550  0.866860  0.323810  -0.604713
    O   O28   0.411380  0.751010  0.398580  -0.647458
    O   O29   0.445500  0.943770  0.173340  -0.691977
    O   O30   0.280150  0.776100  0.124820  -1.031431
    O   O31   0.384970  0.929740  0.112530  -0.711253
    O   O32   0.272420  0.876520  0.176520  -0.528021
    O   O33   0.467340  0.866600  0.092760  -0.661237
    O   O34   0.264880  0.639050  0.095090  -0.693552
    O   O35   0.415920  0.789640  0.152260  -1.136802
    O   O36   0.333900  0.628450  0.151060  -0.749243
    O   O37   0.425940  0.721730  0.090080  -0.591579
    O   O38   0.488440  0.235010  0.805190  -0.735597
    O   O39   0.462000  0.329220  0.829480  -0.701700
    O   O40   0.477670  0.229870  0.873910  -0.727492
    O   O41   0.512620  0.413700  0.880510  -0.645921
    O   O42   0.568200  0.176620  0.853290  -0.690240
    O   O43   0.549530  0.438120  0.684550  -0.591481
    O   O44   0.524300  0.263250  0.625500  -1.190655
    O   O45   0.421810  0.366510  0.647770  -0.666887
    O   O46   0.417080  0.097330  0.615310  -0.761156
    O   O47   0.556770  0.121150  0.617520  -0.659957
    O   O48   0.565880  0.285510  0.679500  -1.062096
    O   O49   0.488040  0.120490  0.676880  -0.842389
    O   O50   0.550760  0.948930  0.140640  -0.700293
    O   O51   0.552080  0.762100  0.110460  -0.679752
    O   O52   0.634440  0.319270  0.893990  -1.200745
    O   O53   0.647040  0.473190  0.888040  -0.747331
    O   O54   0.643450  0.341230  0.838750  -1.058849
    O   O55   0.618940  0.420400  0.626780  -0.680444
    O   O56   0.738390  0.360570  0.942250  -0.740346
    O   O57   0.711730  0.237220  0.810460  -0.734432
    O   O58   0.743450  0.220890  0.857580  -0.742958
    O   O59   0.687160  0.452200  0.684260  -0.621174
    O   O60   0.714330  0.361680  0.637080  -0.615915
    O   O61   0.745250  0.276440  0.687820  -0.651934
    O   O62   0.685640  0.202110  0.650820  -0.615402
    O   O63   0.772130  0.081740  0.300720  -0.782841
    O   O64   0.713400  0.794090  0.743390  -0.746942
    O   O65   0.820450  0.017920  0.265200  -0.723572
    O   O66   0.784030  0.183830  0.252900  -0.667760
    O   O67   0.805470  0.313090  0.906850  -0.659009
    O   O68   0.810750  0.406460  0.853780  -0.758887
    O   O69   0.806820  0.462870  0.896560  -0.717384
    O   O70   0.765990  0.734540  0.777790  -0.720063
    O   O71   0.773360  0.880930  0.800050  -0.686952
    O   O72   0.851980  0.134850  0.219690  -0.671774
    O   O73   0.789580  0.947680  0.756900  -0.574630
    O   O74   0.896320  0.293620  0.292190  -0.628949
    O   O75   0.879180  0.953770  0.701750  -0.710019
    O   O76   0.883060  0.777780  0.821520  -0.610945
    O   O77   0.973850  0.034080  0.230250  -0.673747
    O   O78   0.950240  0.148840  0.283670  -1.154128
    O   O79   0.044000  0.109430  0.191980  -0.703142
    O   O80   0.908010  0.858040  0.750400  -1.081015
    O   O81   0.012220  0.213460  0.235490  -1.114528
    O   O82   0.946640  0.036500  0.735140  -0.696207
    O   O83   0.029060  0.299720  0.303200  -0.616421
    O   O84   0.953150  0.929640  0.796240  -1.187480
    Zn  Zn1   0.990760  0.966070  0.757660  1.438285
    Zn  Zn2   0.050160  0.910080  0.812910  1.275392
    Zn  Zn3   0.104380  0.765530  0.371910  1.146727
    Zn  Zn4   0.179880  0.709100  0.145590  1.151868
    Zn  Zn5   0.104640  0.200800  0.212400  1.162578
    Zn  Zn6   0.209350  0.677330  0.394030  1.390161
    Zn  Zn7   0.384740  0.674950  0.362700  1.268556
    Zn  Zn8   0.308960  0.800840  0.349400  1.358039
    Zn  Zn9   0.356210  0.863240  0.148620  1.305279
    Zn  Zn10  0.348430  0.711410  0.122830  1.429069
    Zn  Zn11  0.545880  0.331390  0.863930  1.365631
    Zn  Zn12  0.604980  0.255820  0.814880  1.208838
    Zn  Zn13  0.531240  0.353620  0.652780  1.326822
    Zn  Zn14  0.408750  0.197680  0.620630  1.159386
    Zn  Zn15  0.567660  0.199080  0.651130  1.434414
    Zn  Zn16  0.523960  0.842650  0.132230  1.196533
    Zn  Zn17  0.681910  0.408080  0.915580  1.223229
    Zn  Zn18  0.727330  0.316880  0.869470  1.496715
    Zn  Zn19  0.682770  0.348140  0.683970  1.122264
    Zn  Zn20  0.055600  0.237530  0.274220  1.365369
    Zn  Zn21  0.852580  0.180130  0.293850  1.259029
    Zn  Zn22  0.815790  0.868420  0.727680  1.144898
    Zn  Zn23  0.857010  0.834280  0.789760  1.366375
    Zn  Zn24  0.924500  0.108210  0.246290  1.429958
