# Generated by REPEAT Assigner based on pymatgen
data_DB7-ddmof_5222
_audit_creation_date              2022-05-24
_audit_creation_method            REPEAT_Assigner
_cell_length_a                    20.324650
_cell_length_b                    20.987920
_cell_length_c                    38.610060
_cell_angle_alpha                 60.675480
_cell_angle_beta                  119.027110
_cell_angle_gamma                 133.363540
_cell_volume                      10147.217624
_symmetry_space_group_name_H-M    P1
_symmetry_Int_Tables_number       1
loop_
    _symmetry_equiv_pos_site_id
    _symmetry_equiv_pos_as_xyz
    1  x,y,z
loop_
    _atom_site_type_symbol
    _atom_site_label
    _atom_site_fract_x
    _atom_site_fract_y
    _atom_site_fract_z
    _atom_type_partial_charge
    C   C1    0.236700  0.108040  0.027660  0.992238
    C   C2    0.062510  0.017360  0.216270  0.928005
    C   C3    0.041330  0.201030  0.105330  1.209084
    C   C4    0.235610  0.902030  0.131480  1.000549
    C   C5    0.245100  0.046260  0.572330  1.048498
    C   C6    0.058400  0.226120  0.602730  1.004698
    C   C7    0.065990  0.771650  0.629920  1.201624
    C   C8    0.041970  0.922210  0.925720  0.423773
    C   C9    0.026080  0.921800  0.886300  -0.455965
    C   C10   0.055070  0.037800  0.757920  -0.318613
    C   C11   0.052620  0.039120  0.793300  0.295526
    C   C12   0.182350  0.096680  0.391500  0.300788
    C   C13   0.171020  0.108830  0.420360  -0.219885
    C   C14   0.162490  0.116990  0.300750  -0.473495
    C   C15   0.164930  0.109740  0.267220  0.486715
    C   C16   0.105950  0.024080  0.259050  -0.202878
    C   C17   0.200270  0.460600  0.606920  -0.272792
    C   C18   0.178330  0.389490  0.598410  0.164929
    C   C19   0.129720  0.301320  0.622600  0.084026
    C   C20   0.204850  0.775850  0.677420  0.224592
    C   C21   0.107580  0.725300  0.663800  -0.260946
    C   C22   0.057600  0.632690  0.668230  -0.051163
    C   C23   0.103370  0.597190  0.675850  0.175823
    C   C24   0.106140  0.291550  0.113450  -0.160974
    C   C25   0.171320  0.452020  0.087890  -0.069551
    C   C26   0.129090  0.369850  0.080910  0.182354
    C   C27   0.268420  0.843840  0.151350  -0.292945
    C   C28   0.204640  0.749430  0.163920  -0.015830
    C   C29   0.219630  0.690650  0.166410  0.135549
    C   C30   0.353770  0.878890  0.146930  0.290034
    C   C31   0.317010  0.667770  0.156200  0.666338
    C   C32   0.265810  0.545510  0.137500  1.242184
    C   C33   0.425060  0.648940  0.163000  0.851531
    C   C34   0.246700  0.630460  0.671300  0.673075
    C   C35   0.381860  0.664850  0.668220  1.116357
    C   C36   0.238520  0.526790  0.657550  0.707488
    C   C37   0.185430  0.446980  0.642710  0.011488
    C   C38   0.121610  0.288740  0.659960  -0.383757
    C   C39   0.146930  0.360320  0.669630  0.221540
    C   C40   0.200120  0.656550  0.677080  -0.180424
    C   C41   0.251430  0.744460  0.681110  -0.072802
    C   C42   0.123240  0.296500  0.152260  -0.282918
    C   C43   0.163010  0.377740  0.158910  0.325084
    C   C44   0.190940  0.457190  0.127100  -0.324762
    C   C45   0.299560  0.726770  0.156100  0.042938
    C   C46   0.367520  0.821020  0.147890  -0.251884
    C   C47   0.330840  0.110260  0.557210  -0.303157
    C   C48   0.339750  0.182670  0.523160  0.110390
    C   C49   0.407700  0.231500  0.501970  0.092098
    C   C50   0.394090  0.089440  0.571050  0.257604
    C   C51   0.336590  0.176860  0.029530  -0.159437
    C   C52   0.366960  0.212150  0.994370  -0.180223
    C   C53   0.455460  0.241760  0.997810  0.141226
    C   C54   0.401270  0.185840  0.067720  0.205816
    C   C55   0.074850  0.020910  0.469360  0.998600
    C   C56   0.082300  0.057400  0.426580  -0.312155
    C   C57   0.103120  0.048330  0.362370  0.086728
    C   C58   0.112430  0.039080  0.329390  0.055316
    C   C59   0.064560  0.946200  0.289770  -0.307468
    C   C60   0.069040  0.953000  0.325500  0.366164
    C   C61   0.014650  0.012290  0.363460  -0.352757
    C   C62   0.003390  0.015320  0.395780  0.387732
    C   C63   0.458910  0.135320  0.548730  -0.129893
    C   C64   0.998340  0.945630  0.932400  -0.184128
    C   C65   0.996560  0.927520  0.974560  0.711076
    C   C66   0.979000  0.967240  0.738380  -0.163960
    C   C67   0.975430  0.965040  0.811200  0.097001
    C   C68   0.978950  0.955890  0.852560  0.123753
    C   C69   0.964700  0.986910  0.694020  1.024552
    C   C70   0.490100  0.216460  0.071110  -0.190319
    C   C71   0.467970  0.207700  0.514780  -0.096403
    C   C72   0.709560  0.248610  0.043270  0.657956
    C   C73   0.609420  0.271810  0.041260  0.979358
    C   C74   0.770630  0.372100  0.064160  1.133330
    C   C75   0.667460  0.293580  0.483230  0.673818
    C   C76   0.552240  0.269590  0.499080  0.722336
    C   C77   0.691940  0.414490  0.490190  0.892167
    C   C78   0.996360  0.720570  0.089710  0.770425
    C   C79   0.805920  0.821390  0.180290  0.818500
    C   C80   0.792480  0.019050  0.066460  0.808001
    C   C81   0.876560  0.738600  0.529060  0.882644
    C   C82   0.719600  0.866350  0.627470  1.069250
    C   C83   0.820020  0.115610  0.526610  0.951347
    C   C84   0.939620  0.984380  0.858430  0.321692
    C   C85   0.948640  0.977750  0.898470  -0.315068
    C   C86   0.902630  0.891380  0.793390  -0.332583
    C   C87   0.904630  0.890920  0.757630  0.291004
    C   C88   0.477710  0.730440  0.662890  -0.372932
    C   C89   0.534320  0.700270  0.683480  -0.078996
    C   C90   0.599190  0.729610  0.665480  0.162205
    C   C91   0.623250  0.803950  0.631430  -0.088868
    C   C92   0.569870  0.837490  0.611580  -0.332241
    C   C93   0.498300  0.802100  0.627310  0.437692
    C   C94   0.521770  0.685300  0.169330  0.016828
    C   C95   0.548310  0.697970  0.137800  -0.149873
    C   C96   0.639390  0.731730  0.142810  0.162723
    C   C97   0.705960  0.755510  0.179520  -0.034101
    C   C98   0.676960  0.734620  0.212370  -0.201470
    C   C99   0.585490  0.700060  0.207440  0.105528
    C   C100  0.706110  0.256620  0.480290  0.001463
    C   C101  0.803180  0.305490  0.488230  -0.263724
    C   C102  0.842060  0.263510  0.495870  0.395836
    C   C103  0.784380  0.170400  0.498180  -0.250986
    C   C104  0.687650  0.125930  0.483880  -0.143234
    C   C105  0.648280  0.169430  0.473660  0.163713
    C   C106  0.755930  0.504270  0.497770  -0.115834
    C   C107  0.744840  0.571580  0.468090  -0.236479
    C   C108  0.775870  0.644500  0.478850  0.315133
    C   C109  0.821060  0.651970  0.519640  -0.094265
    C   C110  0.833940  0.585610  0.549140  -0.277408
    C   C111  0.804330  0.513640  0.538180  0.195604
    C   C112  0.721940  0.188800  0.040900  -0.011701
    C   C113  0.657670  0.094500  0.052810  -0.147187
    C   C114  0.672830  0.036530  0.055180  0.217074
    C   C115  0.755310  0.072670  0.047480  -0.189925
    C   C116  0.813440  0.166060  0.030720  -0.000160
    C   C117  0.797280  0.224320  0.027310  0.061074
    C   C118  0.937790  0.629270  0.084030  0.018102
    C   C119  0.929810  0.621370  0.047900  -0.219342
    C   C120  0.887570  0.537370  0.043450  0.270235
    C   C121  0.849420  0.459040  0.074790  -0.315544
    C   C122  0.863440  0.467620  0.112100  0.043026
    C   C123  0.905490  0.551780  0.116630  0.047456
    C   C124  0.515650  0.239580  0.036680  -0.057505
    Co  Co1   0.054840  0.009390  0.041600  1.281102
    Co  Co2   0.130700  0.908720  0.046840  1.168619
    Co  Co3   0.065040  0.028930  0.542490  1.250814
    Co  Co4   0.078770  0.880450  0.545050  1.306171
    Co  Co5   0.050650  0.866220  0.116750  1.208465
    Co  Co6   0.977370  0.089850  0.562830  1.271660
    Co  Co7   0.973220  0.048950  0.078780  1.221681
    Co  Co8   0.975330  0.911120  0.154840  1.194480
    Co  Co9   0.907200  0.019790  0.149950  1.184523
    Co  Co10  0.954360  0.843140  0.590760  1.308913
    Co  Co11  0.891880  0.913380  0.621770  1.227060
    Co  Co12  0.875190  0.062300  0.616820  1.207269
    H   H1    0.056290  0.900470  0.881560  0.202529
    H   H2    0.113080  0.095580  0.743660  0.220120
    H   H3    0.180690  0.166370  0.796250  0.367021
    H   H4    0.121190  0.118060  0.834110  0.378809
    H   H5    0.138470  0.929300  0.982290  0.224647
    H   H6    0.122110  0.873570  0.952820  0.319345
    H   H7    0.231530  0.145550  0.442650  0.114828
    H   H8    0.199650  0.183230  0.304580  0.187887
    H   H9    0.261510  0.249100  0.246960  0.391917
    H   H10   0.227740  0.180780  0.218230  0.408245
    H   H11   0.325950  0.161260  0.415500  0.280911
    H   H12   0.276750  0.107060  0.376650  0.321462
    H   H13   0.164850  0.427020  0.521780  0.200501
    H   H14   0.235470  0.528190  0.587340  0.124128
    H   H15   0.053480  0.448200  0.731270  0.145387
    H   H16   0.267040  0.940800  0.662900  0.248099
    H   H17   0.179190  0.383450  0.026760  0.186297
    H   H18   0.193120  0.512910  0.063240  0.058926
    H   H19   0.439940  0.033850  0.098530  0.164138
    H   H20   0.072420  0.536750  0.151830  0.159306
    H   H21   0.141050  0.721500  0.169650  0.101121
    H   H22   0.391650  0.231300  0.114920  0.162284
    H   H23   0.210140  0.355620  0.746060  0.103906
    H   H24   0.089130  0.221770  0.680120  0.141204
    H   H25   0.326770  0.787740  0.687510  0.122719
    H   H26   0.104320  0.364750  0.209330  0.189232
    H   H27   0.101630  0.235930  0.176980  0.134524
    H   H28   0.431130  0.849740  0.141820  0.090176
    H   H29   0.342900  0.927720  0.611850  0.199534
    H   H30   0.370310  0.296500  0.423750  0.138062
    H   H31   0.291360  0.198890  0.512120  0.041810
    H   H32   0.318790  0.209380  0.964640  0.104291
    H   H33   0.041970  0.881060  0.384060  0.334694
    H   H34   0.023300  0.880120  0.284660  0.194761
    H   H35   0.983120  0.361700  0.466000  0.185246
    H   H36   0.498190  0.682760  0.109020  0.087459
    H   H37   0.982300  0.589770  0.662400  0.030169
    H   H38   0.538890  0.220670  0.100710  0.131169
    H   H39   0.915610  0.996180  0.903140  0.213903
    H   H40   0.845380  0.833060  0.808020  0.161495
    H   H41   0.778440  0.762410  0.755380  0.341594
    H   H42   0.838980  0.811380  0.717780  0.328335
    H   H43   0.864390  0.038550  0.830620  0.379227
    H   H44   0.884700  0.022880  0.796050  0.330313
    H   H45   0.954330  0.979580  0.339900  0.161244
    H   H46   0.996990  0.813730  0.351950  0.363815
    H   H47   0.907650  0.983570  0.419360  0.339063
    H   H48   0.858830  0.945400  0.374580  0.367742
    H   H49   0.477030  0.917200  0.617810  0.105242
    H   H50   0.587920  0.602100  0.663490  0.216253
    H   H51   0.518830  0.644810  0.710670  0.065112
    H   H52   0.588100  0.895250  0.585360  0.126280
    H   H53   0.516050  0.585150  0.270040  0.135675
    H   H54   0.687850  0.823240  0.074200  0.171214
    H   H55   0.727030  0.749720  0.241160  0.109942
    H   H56   0.477020  0.062340  0.477020  0.135429
    H   H57   0.848760  0.375200  0.489810  0.113407
    H   H58   0.642690  0.056040  0.482590  0.116914
    H   H59   0.751550  0.363970  0.593150  0.119415
    H   H60   0.827810  0.788940  0.421380  0.128400
    H   H61   0.706790  0.564220  0.437040  0.088403
    H   H62   0.871160  0.592390  0.580300  0.203114
    H   H63   0.506930  0.118740  0.559560  0.109486
    H   H64   0.830390  0.356080  0.963230  0.111852
    H   H65   0.602450  0.887310  0.109410  0.160300
    H   H66   0.596930  0.066140  0.061240  0.081262
    H   H67   0.874480  0.194150  0.022640  0.061119
    H   H68   0.993670  0.570260  0.190370  0.111744
    H   H69   0.793640  0.512170  0.971330  0.110961
    H   H70   0.957520  0.681200  0.023280  0.076302
    H   H71   0.834920  0.407550  0.136500  0.021978
    H   H72   0.535220  0.373300  0.939890  0.157526
    N   N1    0.102110  0.903800  0.956630  -0.618392
    N   N2    0.123410  0.112500  0.809340  -0.803241
    N   N3    0.267900  0.125320  0.393970  -0.634494
    N   N4    0.221270  0.185280  0.242060  -0.811172
    N   N5    0.246380  0.592780  0.140830  -0.883482
    N   N6    0.354870  0.574480  0.148260  -0.968560
    N   N7    0.406240  0.695370  0.167150  -0.676214
    N   N8    0.340430  0.688790  0.673660  -0.836170
    N   N9    0.331540  0.581970  0.663060  -0.832503
    N   N10   0.195190  0.551510  0.660750  -0.578350
    N   N11   0.032240  0.877270  0.355790  -0.772697
    N   N12   0.622140  0.223240  0.034750  -0.761834
    N   N13   0.683520  0.345700  0.055910  -0.985353
    N   N14   0.784070  0.322870  0.058530  -0.796505
    N   N15   0.583470  0.236590  0.492890  -0.692449
    N   N16   0.607030  0.358120  0.497890  -0.719116
    N   N17   0.722010  0.382840  0.482270  -0.744695
    N   N18   0.893010  0.017560  0.826020  -0.787982
    N   N19   0.835180  0.817030  0.742030  -0.617436
    N   N20   0.917160  0.977970  0.397000  -0.689834
    O   O1    0.034160  0.068730  0.190860  -0.716861
    O   O2    0.016860  0.086850  0.030300  -0.613331
    O   O3    0.071770  0.977410  0.202450  -0.691323
    O   O4    0.245550  0.952080  0.094350  -0.722299
    O   O5    0.183330  0.891920  0.147760  -0.681387
    O   O6    0.069500  0.170010  0.096910  -0.802188
    O   O7    0.070950  0.926470  0.069680  -0.727517
    O   O8    0.190970  0.041440  0.011470  -0.694860
    O   O9    0.194860  0.107900  0.045120  -0.707964
    O   O10   0.063300  0.133030  0.531680  -0.626453
    O   O11   0.042780  0.766210  0.593050  -0.850646
    O   O12   0.049990  0.816270  0.636000  -0.814110
    O   O13   0.077830  0.181820  0.599000  -0.751628
    O   O14   0.024350  0.919320  0.558360  -0.701960
    O   O15   0.204420  0.958900  0.581570  -0.855381
    O   O16   0.204120  0.076450  0.571690  -0.716065
    O   O17   0.124330  0.990910  0.496340  -0.808323
    O   O18   0.038250  0.037660  0.481360  -0.603819
    O   O19   0.079690  0.778120  0.082680  -0.752291
    O   O20   0.007770  0.866120  0.003440  -0.558258
    O   O21   0.012530  0.832970  0.166100  -0.598367
    O   O22   0.995860  0.980820  0.983700  -0.602670
    O   O23   0.970870  0.061560  0.670980  -0.735695
    O   O24   0.972060  0.195850  0.593330  -0.742695
    O   O25   0.966630  0.941980  0.679640  -0.737905
    O   O26   0.957710  0.147730  0.111210  -0.806083
    O   O27   0.949100  0.986550  0.124970  -0.631453
    O   O28   0.982000  0.936410  0.092180  -0.866658
    O   O29   0.854160  0.895110  0.191560  -0.741795
    O   O30   0.845560  0.808420  0.168180  -0.577089
    O   O31   0.788090  0.971030  0.104460  -0.675588
    O   O32   0.846460  0.035140  0.048690  -0.611627
    O   O33   0.966830  0.742820  0.102940  -0.534747
    O   O34   0.911170  0.015480  0.596820  -0.622106
    O   O35   0.885020  0.806170  0.628770  -0.606898
    O   O36   0.944510  0.958740  0.568330  -0.939603
    O   O37   0.777520  0.933810  0.644470  -0.846291
    O   O38   0.750420  0.845760  0.614120  -0.700795
    O   O39   0.786580  0.057760  0.559560  -0.699957
    O   O40   0.888190  0.129080  0.519850  -0.669035
    O   O41   0.946120  0.808880  0.511120  -0.770651
    O   O42   0.862390  0.741760  0.558580  -0.658888
    S   S1    0.218260  0.412550  0.559400  -0.250759
    S   S2    0.042060  0.478860  0.689690  -0.265601
    S   S3    0.104980  0.366030  0.031330  -0.306826
    S   S4    0.140510  0.573350  0.184310  -0.248695
    S   S5    0.131430  0.340730  0.715840  -0.198881
    S   S6    0.266810  0.871490  0.694700  -0.300864
    S   S7    0.180000  0.379730  0.207740  -0.326881
    S   S8    0.443780  0.995650  0.139520  -0.270023
    S   S9    0.416870  0.322740  0.459580  -0.201047
    S   S10   0.398790  0.012170  0.618090  -0.302623
    S   S11   0.371420  0.157040  0.111640  -0.240445
    S   S12   0.434780  0.847820  0.601980  -0.288728
    S   S13   0.490020  0.281520  0.953320  -0.269067
    S   S14   0.962850  0.328050  0.502840  -0.398251
    S   S15   0.644440  0.668450  0.683860  -0.325930
    S   S16   0.668760  0.743850  0.102840  -0.238619
    S   S17   0.551340  0.673720  0.249430  -0.249604
    S   S18   0.529630  0.118480  0.448590  -0.267449
    S   S19   0.756600  0.725460  0.441070  -0.286912
    S   S20   0.826050  0.434050  0.575570  -0.173927
    S   S21   0.587900  0.918780  0.067750  -0.273985
    S   S22   0.869060  0.340170  0.004310  -0.125461
    S   S23   0.877430  0.530290  0.997310  -0.216202
    S   S24   0.913500  0.558060  0.162520  -0.190652
