# Generated by REPEAT Assigner based on pymatgen
data_DB7-ddmof_4943
_audit_creation_date              2022-05-24
_audit_creation_method            REPEAT_Assigner
_cell_length_a                    36.033010
_cell_length_b                    36.032530
_cell_length_c                    21.011900
_cell_angle_alpha                 90.016630
_cell_angle_beta                  89.994910
_cell_angle_gamma                 89.946960
_cell_volume                      27281.008333
_symmetry_space_group_name_H-M    P1
_symmetry_Int_Tables_number       1
loop_
    _symmetry_equiv_pos_site_id
    _symmetry_equiv_pos_as_xyz
    1  x,y,z
loop_
    _atom_site_type_symbol
    _atom_site_label
    _atom_site_fract_x
    _atom_site_fract_y
    _atom_site_fract_z
    _atom_type_partial_charge
    Co  Co1   0.966510  0.963340  0.932450  1.210881
    Co  Co2   0.024300  0.017820  0.087640  1.208596
    Co  Co3   0.967050  0.962360  0.087490  1.221504
    Co  Co4   0.023620  0.018730  0.932720  1.213413
    C   C1    0.912570  0.993230  0.832380  0.788262
    Co  Co5   0.993640  0.989850  0.794000  1.299540
    Co  Co6   0.998410  0.989860  0.226060  1.301983
    C   C2    0.073710  0.984980  0.835570  0.906563
    O   O1    0.014450  0.934440  0.222730  -0.713241
    O   O2    0.992210  0.994030  0.126580  -0.754633
    C   C3    0.000190  0.910310  0.182500  0.921656
    O   O3    0.945350  0.937700  0.009520  -0.595787
    O   O4    0.049650  0.039160  0.010410  -0.592389
    C   C4    0.077190  0.990600  0.181980  1.114932
    O   O5    0.982970  0.003290  0.010590  -0.789431
    C   C5    0.916400  0.979770  0.198600  0.720517
    C   C6    0.991790  0.910450  0.836020  1.106914
    C   C7    0.005720  0.070950  0.823930  0.722230
    O   O6    0.997770  0.918300  0.121520  -0.642685
    O   O7    0.977170  0.934210  0.795600  -0.712670
    O   O8    0.997360  0.920340  0.895410  -0.641635
    O   O9    0.054090  0.005410  0.223330  -0.721124
    O   O10   0.066800  0.985910  0.122630  -0.648660
    O   O11   0.943850  0.971660  0.237590  -0.664376
    O   O12   0.918730  0.972500  0.137170  -0.567769
    O   O13   0.012680  0.044000  0.783330  -0.655237
    O   O14   0.015120  0.067950  0.884400  -0.563472
    O   O15   0.990730  0.995180  0.893790  -0.762741
    C   C8    0.995930  0.071520  0.190000  0.801237
    O   O16   0.981420  0.045160  0.226260  -0.630584
    O   O17   0.021840  0.064260  0.146830  -0.565580
    O   O18   0.938780  0.007560  0.795600  -0.630516
    O   O19   0.919850  0.966920  0.874770  -0.562004
    O   O20   0.048830  0.972460  0.794950  -0.710301
    O   O21   0.066020  0.986820  0.896750  -0.635275
    C   C9    0.979030  0.525660  0.542800  0.118640
    C   C10   0.977340  0.525960  0.475730  0.126187
    C   C11   0.974650  0.492460  0.442160  -0.240292
    C   C12   0.974020  0.458640  0.474950  0.110862
    C   C13   0.975700  0.458330  0.541970  0.139479
    C   C14   0.978010  0.491830  0.575610  -0.245949
    H   H1    0.979480  0.491550  0.627190  0.161586
    H   H2    0.973480  0.492700  0.390550  0.161532
    C   C15   0.526690  0.998300  0.547550  0.137763
    C   C16   0.527850  0.995420  0.480670  0.114890
    C   C17   0.494820  0.991450  0.446070  -0.236059
    C   C18   0.460630  0.990250  0.477830  0.109605
    C   C19   0.459530  0.992980  0.544770  0.133704
    C   C20   0.492550  0.997030  0.579260  -0.249879
    H   H3    0.491670  0.999160  0.630760  0.162812
    H   H4    0.495730  0.989280  0.394590  0.162234
    C   C21   0.185580  0.978770  0.234980  0.144970
    C   C22   0.196370  0.948270  0.272010  -0.173908
    C   C23   0.232170  0.946640  0.297630  -0.152746
    C   C24   0.257400  0.975600  0.286480  0.119878
    C   C25   0.246970  0.005470  0.247460  -0.159830
    C   C26   0.211180  0.007020  0.221790  -0.163402
    C   C27   0.293730  0.975900  0.319070  0.087466
    C   C28   0.295370  0.976990  0.385810  -0.134944
    C   C29   0.329680  0.979020  0.416700  -0.253359
    C   C30   0.362570  0.980110  0.381170  0.340010
    C   C31   0.361070  0.978580  0.314550  -0.239708
    C   C32   0.326750  0.976460  0.283550  -0.148583
    C   C33   0.397750  0.983600  0.413230  -0.240390
    C   C34   0.426690  0.986530  0.441650  -0.045827
    C   C35   0.147430  0.982700  0.215430  0.077193
    C   C36   0.115490  0.985920  0.199120  -0.420680
    H   H5    0.176770  0.926270  0.282260  0.145241
    H   H6    0.240050  0.923290  0.327190  0.116188
    H   H7    0.266230  0.027940  0.238500  0.123013
    H   H8    0.203060  0.030660  0.193090  0.144391
    H   H9    0.270070  0.976760  0.413660  0.111429
    H   H10   0.330650  0.980070  0.468220  0.171780
    H   H11   0.386400  0.979310  0.286790  0.157337
    H   H12   0.325800  0.975490  0.232040  0.115875
    C   C37   0.181850  0.985070  0.778780  0.238818
    C   C38   0.197710  0.952610  0.754050  -0.190272
    C   C39   0.233630  0.953340  0.728990  -0.179601
    C   C40   0.253880  0.986590  0.728500  0.120066
    C   C41   0.238330  0.018820  0.754920  -0.137125
    C   C42   0.202410  0.018050  0.779980  -0.211959
    C   C43   0.290470  0.988100  0.697430  0.120744
    C   C44   0.295330  0.009300  0.642040  -0.193254
    C   C45   0.329880  0.010350  0.611950  -0.160068
    C   C46   0.359770  0.990210  0.636980  0.250656
    C   C47   0.355030  0.969060  0.692350  -0.192949
    C   C48   0.320460  0.967990  0.722510  -0.187571
    C   C49   0.395150  0.990920  0.605350  -0.192787
    C   C50   0.424590  0.991830  0.578270  -0.073032
    C   C51   0.143770  0.985050  0.799320  -0.071194
    C   C52   0.111870  0.984930  0.816470  -0.203636
    H   H13   0.181970  0.927000  0.753110  0.159673
    H   H14   0.245430  0.928310  0.708740  0.128480
    H   H15   0.253870  0.044550  0.755140  0.119364
    H   H16   0.190350  0.043220  0.799250  0.150397
    H   H17   0.272270  0.024750  0.622150  0.126407
    H   H18   0.333370  0.026700  0.569080  0.137195
    H   H19   0.378050  0.953400  0.711910  0.150489
    H   H20   0.316960  0.951570  0.765280  0.128131
    C   C53   0.811790  0.991930  0.269390  0.275820
    C   C54   0.803420  0.017330  0.317820  -0.209187
    C   C55   0.767260  0.019680  0.341720  -0.157799
    C   C56   0.739310  0.996580  0.317290  0.120627
    C   C57   0.747690  0.971520  0.268230  -0.155771
    C   C58   0.783810  0.969230  0.244360  -0.216716
    C   C59   0.701690  0.997520  0.344820  0.108840
    C   C60   0.696120  0.987310  0.408540  -0.176831
    C   C61   0.660320  0.986840  0.434050  -0.194823
    C   C62   0.629870  0.996670  0.396130  0.293007
    C   C63   0.635340  0.007040  0.332560  -0.215565
    C   C64   0.671160  0.007460  0.306920  -0.172047
    C   C65   0.593160  0.996570  0.422990  -0.213002
    C   C66   0.562990  0.996050  0.447680  -0.064125
    C   C67   0.849170  0.988640  0.245920  -0.136656
    C   C68   0.880120  0.985090  0.225070  -0.097060
    H   H21   0.824900  0.035040  0.337240  0.151516
    H   H22   0.761020  0.039210  0.379460  0.124376
    H   H23   0.726340  0.953480  0.249250  0.127380
    H   H24   0.790110  0.949580  0.206810  0.162165
    H   H25   0.719470  0.979380  0.438060  0.120982
    H   H26   0.656240  0.978700  0.483200  0.155983
    H   H27   0.611920  0.014760  0.303040  0.153955
    H   H28   0.675210  0.015420  0.257680  0.121306
    C   C69   0.804370  0.005260  0.779070  0.176636
    C   C70   0.788630  0.039960  0.765530  -0.171384
    C   C71   0.752270  0.042240  0.742440  -0.160399
    C   C72   0.731480  0.009780  0.732680  0.129373
    C   C73   0.747070  0.975140  0.747560  -0.175663
    C   C74   0.783360  0.972920  0.770720  -0.169421
    C   C75   0.694140  0.011830  0.703940  0.105171
    C   C76   0.689700  0.025750  0.642000  -0.181108
    C   C77   0.654930  0.024630  0.612550  -0.173310
    C   C78   0.624420  0.009430  0.644640  0.262498
    C   C79   0.628550  0.996400  0.707070  -0.199455
    C   C80   0.663290  0.997650  0.736710  -0.173280
    C   C81   0.589490  0.005320  0.612130  -0.195063
    C   C82   0.560570  0.002230  0.583750  -0.076273
    C   C83   0.842650  0.002540  0.798300  -0.021102
    C   C84   0.874570  0.999040  0.814460  -0.233250
    H   H29   0.804690  0.065100  0.771990  0.139377
    H   H30   0.740420  0.069130  0.731420  0.118923
    H   H31   0.731330  0.949920  0.739990  0.128464
    H   H32   0.795350  0.946000  0.781110  0.155039
    H   H33   0.713340  0.036650  0.616210  0.124257
    H   H34   0.651870  0.034930  0.564380  0.141440
    H   H35   0.605050  0.984730  0.732240  0.149787
    H   H36   0.666380  0.987030  0.784660  0.121379
    C   C85   0.971880  0.358440  0.383760  0.348597
    C   C86   0.974970  0.326630  0.421760  -0.255214
    C   C87   0.976290  0.291520  0.393580  -0.148373
    C   C88   0.974540  0.287980  0.327130  0.094415
    C   C89   0.970730  0.319810  0.289160  -0.143983
    C   C90   0.969430  0.354970  0.317440  -0.252109
    C   C91   0.978420  0.251110  0.297370  0.141145
    C   C92   0.011950  0.231530  0.302790  -0.189250
    C   C93   0.014990  0.195620  0.278210  -0.166154
    C   C94   0.984570  0.179010  0.248020  0.180721
    C   C95   0.951270  0.198780  0.241310  -0.176922
    C   C96   0.948200  0.234780  0.265870  -0.160491
    C   C97   0.987200  0.141150  0.226360  -0.021009
    C   C98   0.990580  0.109430  0.208950  -0.238431
    C   C99   0.972360  0.394590  0.412990  -0.242554
    C   C100  0.972900  0.424180  0.439770  -0.044774
    H   H37   0.976770  0.329120  0.473090  0.176453
    H   H38   0.979070  0.267100  0.423280  0.111814
    H   H39   0.969370  0.317340  0.237820  0.114059
    H   H40   0.966960  0.379440  0.287790  0.160515
    H   H41   0.035490  0.243990  0.326700  0.128130
    H   H42   0.040850  0.180530  0.283390  0.155447
    H   H43   0.927650  0.186140  0.217900  0.138061
    H   H44   0.922210  0.249690  0.261400  0.119594
    C   C101  0.979790  0.358060  0.632290  0.255453
    C   C102  0.011380  0.335950  0.623600  -0.160647
    C   C103  0.012860  0.300340  0.649720  -0.190128
    C   C104  0.982670  0.286560  0.684590  0.109555
    C   C105  0.951080  0.308780  0.693530  -0.174138
    C   C106  0.949670  0.344460  0.667450  -0.202296
    C   C107  0.984200  0.248900  0.711650  0.129593
    C   C108  0.009640  0.240660  0.760170  -0.177213
    C   C109  0.012800  0.204400  0.783090  -0.193629
    C   C110  0.990580  0.176160  0.757660  0.261213
    C   C111  0.964690  0.184440  0.709950  -0.211274
    C   C112  0.961470  0.220730  0.687010  -0.152939
    C   C113  0.995000  0.138620  0.779680  -0.128331
    C   C114  0.999440  0.107490  0.799230  -0.106856
    C   C115  0.977530  0.393780  0.602040  -0.183177
    C   C116  0.976500  0.423560  0.576070  -0.084997
    H   H45   0.034640  0.346190  0.596010  0.133255
    H   H46   0.037310  0.283330  0.642460  0.129417
    H   H47   0.927680  0.298390  0.720540  0.123026
    H   H48   0.925070  0.361350  0.674050  0.149936
    H   H49   0.027200  0.262270  0.779610  0.128671
    H   H50   0.032770  0.198210  0.820170  0.158671
    H   H51   0.947350  0.162740  0.690200  0.153444
    H   H52   0.941790  0.226850  0.649450  0.123150
    C   C117  0.981820  0.624960  0.381430  0.256685
    C   C118  0.998230  0.627730  0.321150  -0.196053
    C   C119  0.000460  0.662190  0.290770  -0.187328
    C   C120  0.986230  0.694020  0.320570  0.124554
    C   C121  0.969690  0.691140  0.380830  -0.191582
    C   C122  0.967490  0.656700  0.411120  -0.164644
    C   C123  0.989020  0.730440  0.289170  0.123933
    C   C124  0.023850  0.747090  0.280460  -0.187169
    C   C125  0.026280  0.782930  0.255370  -0.183823
    C   C126  0.993950  0.802290  0.238820  0.234204
    C   C127  0.959220  0.785290  0.245750  -0.215048
    C   C128  0.956750  0.749460  0.270860  -0.134032
    C   C129  0.996260  0.840320  0.218490  -0.069660
    C   C130  0.998220  0.872180  0.201470  -0.207895
    C   C131  0.980400  0.589760  0.413510  -0.196913
    C   C132  0.978940  0.560520  0.441170  -0.071614
    H   H53   0.009400  0.603280  0.297960  0.151537
    H   H54   0.013230  0.664160  0.244210  0.125831
    H   H55   0.958780  0.715600  0.404300  0.123190
    H   H56   0.954810  0.654730  0.457780  0.141023
    H   H57   0.048910  0.732600  0.294420  0.130184
    H   H58   0.053220  0.795900  0.250000  0.158336
    H   H59   0.934120  0.800060  0.232830  0.152767
    H   H60   0.929770  0.736710  0.277040  0.116050
    C   C133  0.989260  0.624160  0.638190  0.316080
    C   C134  0.982540  0.626780  0.703750  -0.231688
    C   C135  0.985290  0.661110  0.734540  -0.149246
    C   C136  0.994760  0.693040  0.699870  0.086651
    C   C137  0.001820  0.690260  0.634310  -0.154765
    C   C138  0.999120  0.655920  0.603640  -0.217913
    C   C139  0.995930  0.729600  0.731600  0.127216
    C   C140  0.963550  0.744660  0.758350  -0.160188
    C   C141  0.963880  0.780550  0.783710  -0.173859
    C   C142  0.996540  0.801630  0.782460  0.153249
    C   C143  0.029200  0.786240  0.757560  -0.178609
    C   C144  0.028920  0.750320  0.732240  -0.156302
    C   C145  0.995720  0.839990  0.801930  0.071013
    C   C146  0.994460  0.872030  0.818440  -0.419080
    C   C147  0.985480  0.589040  0.606040  -0.230265
    C   C148  0.982500  0.559980  0.578010  -0.051053
    H   H61   0.974980  0.602310  0.730780  0.155771
    H   H62   0.979890  0.662940  0.785170  0.116033
    H   H63   0.008940  0.714750  0.607050  0.115740
    H   H64   0.004450  0.654070  0.552980  0.158944
    H   H65   0.937940  0.728920  0.758110  0.121957
    H   H66   0.938530  0.792260  0.802930  0.150371
    H   H67   0.054570  0.802340  0.756560  0.147743
    H   H68   0.054140  0.738830  0.712190  0.117615
