# Generated by REPEAT Assigner based on pymatgen
data_DB7-ddmof_22847
_audit_creation_date              2022-05-24
_audit_creation_method            REPEAT_Assigner
_cell_length_a                    17.698910
_cell_length_b                    15.358340
_cell_length_c                    51.436050
_cell_angle_alpha                 90.496200
_cell_angle_beta                  90.927710
_cell_angle_gamma                 110.851390
_cell_volume                      13062.677181
_symmetry_space_group_name_H-M    P1
_symmetry_Int_Tables_number       1
loop_
    _symmetry_equiv_pos_site_id
    _symmetry_equiv_pos_as_xyz
    1  x,y,z
loop_
    _atom_site_type_symbol
    _atom_site_label
    _atom_site_fract_x
    _atom_site_fract_y
    _atom_site_fract_z
    _atom_type_partial_charge
    C   C1    0.563990  0.117250  0.912990  1.097338
    C   C2    0.457400  0.101260  0.843960  0.634182
    C   C3    0.450940  0.372350  0.905740  0.959579
    C   C4    0.491740  0.312770  0.575900  1.114297
    C   C5    0.580810  0.617230  0.574850  0.950569
    C   C6    0.394810  0.314200  0.643650  0.639029
    C   C7    0.645270  0.211900  0.649930  0.778347
    C   C8    0.017040  0.224370  0.775250  0.767005
    C   C9    0.178760  0.008630  0.785620  0.840299
    C   C10   0.113150  0.225610  0.705570  0.835649
    C   C11   0.330690  0.995980  0.417700  1.054342
    C   C12   0.085730  0.873750  0.360210  0.794562
    C   C13   0.429880  0.016960  0.348180  0.766161
    C   C14   0.176160  0.618790  0.358830  1.042326
    C   C15   0.447420  0.753090  0.409590  0.960860
    C   C16   0.114880  0.633390  0.430560  0.807058
    C   C17   0.454830  0.759480  0.143810  0.839045
    C   C18   0.207630  0.864790  0.146830  0.822035
    C   C19   0.446900  0.845310  0.073610  0.815997
    C   C20   0.104650  0.557170  0.087270  0.836988
    C   C21   0.318790  0.491600  0.072230  0.627120
    C   C22   0.099470  0.499420  0.157240  0.987481
    C   C23   0.036990  0.019900  0.215430  0.735761
    C   C24   0.009440  0.296470  0.293660  0.289779
    C   C25   0.028120  0.442400  0.171470  0.070368
    C   C26   0.015600  0.468480  0.196730  -0.212208
    C   C27   0.520300  0.766780  0.162950  -0.253532
    C   C28   0.509230  0.781970  0.189270  -0.046088
    C   C29   0.574350  0.806940  0.206850  -0.093822
    C   C30   0.651720  0.813930  0.198770  -0.153596
    C   C31   0.661670  0.787920  0.172740  -0.041706
    C   C32   0.596340  0.769150  0.154710  0.076690
    C   C33   0.086710  0.997690  0.195550  -0.084022
    C   C34   0.165160  0.001770  0.201950  -0.004742
    C   C35   0.206640  0.964320  0.185060  -0.186841
    C   C36   0.170850  0.923060  0.161270  -0.193126
    C   C37   0.096480  0.930790  0.153060  0.101450
    C   C38   0.053110  0.964000  0.170920  -0.149041
    C   C39   0.062500  0.903090  0.125700  0.556290
    C   C40   0.491640  0.078010  0.331390  0.125732
    C   C41   0.564100  0.139480  0.342420  -0.018644
    C   C42   0.633740  0.170190  0.327540  -0.217341
    C   C43   0.631100  0.136960  0.301950  -0.174295
    C   C44   0.555030  0.095160  0.289310  0.223552
    C   C45   0.485570  0.061590  0.304490  -0.463046
    C   C46   0.549180  0.073530  0.260440  0.503550
    C   C47   0.053890  0.379120  0.310260  0.310867
    C   C48   0.023100  0.391560  0.334400  -0.192950
    C   C49   0.063440  0.469860  0.349860  -0.150038
    C   C50   0.135370  0.537650  0.341580  -0.190952
    C   C51   0.167000  0.526790  0.317070  0.062965
    C   C52   0.126650  0.445940  0.301870  -0.346475
    C   C53   0.244860  0.598730  0.307540  0.590546
    C   C54   0.020220  0.862110  0.341010  -0.032866
    C   C55   0.031910  0.850640  0.314190  -0.303258
    C   C56   0.106990  0.834380  0.305080  1.151023
    C   C57   0.349230  0.039570  0.443020  -0.453774
    C   C58   0.368290  0.077270  0.464050  0.255055
    C   C59   0.393440  0.122910  0.488390  -0.053976
    C   C60   0.416240  0.163360  0.508890  -0.070231
    C   C61   0.443540  0.212820  0.532600  0.268982
    C   C62   0.466320  0.257120  0.552550  -0.489689
    C   C63   0.075780  0.594180  0.454030  -0.328586
    C   C64   0.042330  0.566660  0.474100  0.179766
    C   C65   0.572200  0.653250  0.549770  -0.378248
    C   C66   0.562260  0.679040  0.528340  0.244846
    C   C67   0.547090  0.704290  0.503000  -0.059599
    C   C68   0.530670  0.721720  0.481290  -0.031733
    C   C69   0.506930  0.737350  0.455940  0.072155
    C   C70   0.482350  0.746710  0.434540  -0.298963
    C   C71   0.174230  0.248570  0.685260  -0.041741
    C   C72   0.227800  0.340670  0.683340  -0.056200
    C   C73   0.300660  0.360580  0.670480  -0.211792
    C   C74   0.320820  0.288960  0.658990  -0.058543
    C   C75   0.264900  0.195990  0.659360  0.110277
    C   C76   0.191650  0.176690  0.672660  -0.285506
    C   C77   0.283990  0.117600  0.646180  0.497777
    C   C78   0.024060  0.528350  0.042300  0.145302
    C   C79   0.060920  0.541610  0.062810  -0.267614
    C   C80   0.555240  0.084290  0.939100  -0.494326
    C   C81   0.546470  0.056270  0.961020  0.289781
    C   C82   0.533690  0.021490  0.986440  -0.078190
    C   C83   0.519780  0.988570  0.007740  0.010096
    C   C84   0.499310  0.945070  0.031920  0.140759
    C   C85   0.477750  0.902670  0.051650  -0.322208
    C   C86   0.336460  0.464680  0.047020  -0.088658
    C   C87   0.349230  0.444700  0.025280  0.074743
    C   C88   0.363640  0.424320  0.999500  0.063630
    C   C89   0.377380  0.409300  0.977420  -0.091347
    C   C90   0.396940  0.394280  0.951760  0.064926
    C   C91   0.418330  0.383360  0.930290  -0.268475
    C   C92   0.247400  0.989900  0.797380  -0.245280
    C   C93   0.322780  0.025520  0.785510  -0.084639
    C   C94   0.393930  0.050740  0.800590  -0.239701
    C   C95   0.390180  0.039690  0.827610  0.083644
    C   C96   0.315320  0.987160  0.838820  0.154456
    C   C97   0.243840  0.964010  0.823540  -0.064630
    C   C98   0.310660  0.963300  0.867430  0.370362
    C   C99   0.649890  0.128630  0.662460  -0.094471
    C   C100  0.627010  0.113210  0.688460  -0.123859
    C   C101  0.703310  0.088290  0.652420  -0.082218
    C   C102  0.698840  0.111370  0.293320  0.959569
    C   C103  0.720470  0.850270  0.217760  0.717802
    C   C104  0.670410  0.077350  0.705540  0.032359
    C   C105  0.740370  0.779510  0.164010  0.623560
    C   C106  0.717920  0.636510  0.835440  -0.072399
    C   C107  0.727990  0.537590  0.872080  0.699509
    C   C108  0.744660  0.047740  0.669250  -0.051086
    C   C109  0.734560  0.052730  0.696400  -0.183522
    C   C110  0.753220  0.702250  0.816490  -0.098899
    C   C111  0.766210  0.613850  0.854120  -0.097245
    C   C112  0.801900  0.003860  0.658260  0.650776
    C   C113  0.780900  0.569830  0.645990  0.834967
    C   C114  0.783600  0.457790  0.937260  0.733227
    C   C115  0.754670  0.259720  0.798780  0.888720
    C   C116  0.803540  0.260060  0.853780  0.827230
    C   C117  0.796580  0.046040  0.715070  0.864118
    C   C118  0.819880  0.495800  0.578810  0.667409
    C   C119  0.836690  0.256640  0.806700  -0.187098
    C   C120  0.833350  0.641130  0.664730  -0.178061
    C   C121  0.834610  0.617500  0.691080  -0.224939
    C   C122  0.837470  0.745930  0.815830  0.072380
    C   C123  0.843870  0.471780  0.957540  -0.239962
    C   C124  0.844570  0.881280  0.285290  0.697741
    C   C125  0.851230  0.659740  0.854210  -0.098554
    C   C126  0.860480  0.261590  0.833250  0.015563
    C   C127  0.875070  0.501610  0.558370  -0.192973
    C   C128  0.874580  0.815690  0.795810  0.495197
    C   C129  0.876670  0.684690  0.709670  -0.003464
    C   C130  0.883210  0.731790  0.656860  0.115590
    C   C131  0.879320  0.191370  0.167570  0.731716
    C   C132  0.890150  0.248960  0.787630  -0.002690
    C   C133  0.886320  0.724360  0.834640  -0.104978
    C   C134  0.890050  0.484290  0.975920  0.150418
    C   C135  0.897140  0.756460  0.628380  0.352133
    C   C136  0.887330  0.867140  0.331160  -0.249445
    C   C137  0.904540  0.637620  0.874560  0.506083
    C   C138  0.900910  0.863820  0.304400  -0.037467
    C   C139  0.918050  0.509720  0.540010  0.103820
    C   C140  0.921000  0.234860  0.224270  0.919090
    C   C141  0.914850  0.777510  0.702540  -0.243182
    C   C142  0.920130  0.800460  0.676110  -0.062692
    C   C143  0.930840  0.308410  0.205090  -0.234194
    C   C144  0.926710  0.851300  0.722160  0.847955
    C   C145  0.929400  0.287180  0.178240  -0.039201
    C   C146  0.938690  0.266190  0.840130  -0.078527
    C   C147  0.939900  0.499510  0.998560  -0.031913
    C   C148  0.946850  0.867100  0.349280  -0.059738
    C   C149  0.964570  0.523900  0.517480  0.017084
    C   C150  0.966360  0.401760  0.213460  0.011570
    C   C151  0.966860  0.248080  0.794790  -0.099949
    C   C152  0.001590  0.540810  0.497640  -0.057290
    C   C153  0.972390  0.853240  0.296010  0.054090
    C   C154  0.979690  0.512740  0.018490  -0.022678
    C   C155  0.981120  0.353660  0.161740  -0.216639
    C   C156  0.991760  0.260120  0.821050  -0.190411
    F   F1    0.017820  0.808690  0.124650  -0.187662
    F   F2    0.012570  0.951090  0.118550  -0.223448
    F   F3    0.123910  0.923450  0.107870  -0.261228
    F   F4    0.475870  0.072010  0.250230  -0.145959
    F   F5    0.610370  0.140550  0.247510  -0.258490
    F   F6    0.555550  0.987380  0.256230  -0.231098
    F   F7    0.309800  0.591860  0.321540  -0.209633
    F   F8    0.256060  0.585460  0.281430  -0.177391
    F   F9    0.243380  0.687660  0.310630  -0.237760
    F   F10   0.104220  0.817140  0.278550  -0.273210
    F   F11   0.174780  0.912060  0.310800  -0.415585
    F   F12   0.113720  0.758070  0.317590  -0.410730
    F   F13   0.352380  0.109610  0.657660  -0.195969
    F   F14   0.221180  0.032820  0.648160  -0.216945
    F   F15   0.297580  0.136230  0.620050  -0.104835
    F   F16   0.237590  0.894420  0.873010  -0.207190
    F   F17   0.371710  0.930980  0.874350  -0.152903
    F   F18   0.318550  0.041820  0.882210  -0.128816
    F   F19   0.728220  0.724210  0.141800  -0.270600
    F   F20   0.832250  0.775990  0.618200  -0.118318
    F   F21   0.694040  0.183110  0.808480  -0.406676
    F   F22   0.781840  0.976170  0.632600  -0.224929
    F   F23   0.772400  0.738970  0.183080  -0.160637
    F   F24   0.798050  0.925860  0.672230  -0.222317
    F   F25   0.795320  0.866890  0.158550  -0.150078
    F   F26   0.744490  0.259140  0.772020  -0.206263
    F   F27   0.747050  0.340210  0.808640  -0.284150
    F   F28   0.810570  0.151500  0.182050  -0.272823
    F   F29   0.855120  0.197240  0.142130  -0.216127
    F   F30   0.876880  0.645210  0.899170  -0.108954
    F   F31   0.880130  0.067640  0.659440  -0.222091
    F   F32   0.902880  0.547840  0.870530  -0.159631
    F   F33   0.906880  0.684000  0.614380  -0.054247
    F   F34   0.924900  0.134600  0.168190  -0.233436
    F   F35   0.966450  0.834110  0.625420  -0.195010
    F   F36   0.984030  0.698020  0.873490  -0.216923
    H   H1    0.634980  0.289860  0.845310  0.353883
    H   H2    0.617140  0.297330  0.922840  0.262856
    H   H3    0.584490  0.507340  0.640200  0.358540
    H   H4    0.082770  0.023560  0.728660  0.357510
    H   H5    0.245830  0.826440  0.348060  0.393113
    H   H6    0.287960  0.803930  0.425700  0.236610
    H   H7    0.263710  0.773290  0.090380  0.306443
    H   H8    0.303160  0.600200  0.141410  0.360273
    H   H9    0.049380  0.538050  0.204110  0.169957
    H   H10   0.565040  0.823500  0.226790  0.092073
    H   H11   0.605080  0.758040  0.134320  0.115398
    H   H12   0.450380  0.777930  0.195990  0.141379
    H   H13   0.265040  0.962830  0.191150  0.200846
    H   H14   0.192420  0.029230  0.220700  0.117659
    H   H15   0.428470  0.017500  0.295720  0.169876
    H   H16   0.568270  0.156070  0.363040  0.140248
    H   H17   0.038950  0.477620  0.368560  0.206319
    H   H18   0.151810  0.435010  0.283610  0.148921
    H   H19   0.582890  0.140130  0.696140  0.170360
    H   H20   0.341890  0.432170  0.669510  0.109815
    H   H21   0.150270  0.105490  0.674410  0.154865
    H   H22   0.214660  0.396620  0.692920  0.173156
    H   H23   0.051510  0.262090  0.826780  0.185091
    H   H24   0.451430  0.086910  0.791620  0.120395
    H   H25   0.185420  0.933940  0.832520  0.189123
    H   H26   0.326120  0.042720  0.765070  0.137871
    H   H27   0.653040  0.337560  0.592330  0.233172
    H   H28   0.652800  0.601990  0.835390  0.155846
    H   H29   0.691440  0.208590  0.336930  0.193105
    H   H30   0.718460  0.096520  0.632030  0.079793
    H   H31   0.658610  0.076110  0.726160  0.106681
    H   H32   0.714930  0.719220  0.802280  0.056625
    H   H33   0.768420  0.068040  0.236710  0.373273
    H   H34   0.800290  0.547630  0.697370  0.154923
    H   H35   0.831620  0.872790  0.337950  0.196576
    H   H36   0.871370  0.240970  0.767330  0.064549
    H   H37   0.873210  0.666150  0.730010  0.186053
    H   H38   0.912780  0.054410  0.777350  0.340770
    H   H39   0.936760  0.873480  0.369820  0.179470
    H   H40   0.949860  0.872490  0.670640  0.127111
    H   H41   0.951470  0.757040  0.833820  0.215731
    H   H42   0.957820  0.272500  0.860400  0.152440
    H   H43   0.956280  0.047120  0.280680  0.322340
    H   H44   0.963760  0.420260  0.233720  0.158522
    H   H45   0.967680  0.340380  0.341300  0.198547
    H   H46   0.982470  0.849380  0.275390  0.056657
    H   H47   0.988210  0.334780  0.141800  0.160798
    H   H48   0.993060  0.962710  0.165780  0.182723
    Ni  Ni1   0.531450  0.259400  0.880060  1.159096
    Ni  Ni2   0.630750  0.135430  0.860180  1.192098
    Ni  Ni3   0.622800  0.458130  0.918150  1.144081
    Ni  Ni4   0.561090  0.335300  0.630890  1.195374
    Ni  Ni5   0.470870  0.465020  0.606800  1.093089
    Ni  Ni6   0.006400  0.962450  0.770850  1.224223
    Ni  Ni7   0.148420  0.163970  0.757200  1.101322
    Ni  Ni8   0.173870  0.781230  0.392590  1.167600
    Ni  Ni9   0.359980  0.856640  0.381860  1.173364
    Ni  Ni10  0.262440  0.987630  0.364610  1.163621
    Ni  Ni11  0.271150  0.646850  0.407460  1.075302
    Ni  Ni12  0.202530  0.676640  0.130730  1.197513
    Ni  Ni13  0.347080  0.672090  0.097120  1.168860
    Ni  Ni14  0.364400  0.871180  0.121920  1.104682
    Ni  Ni15  0.203910  0.470710  0.116490  1.241217
    Ni  Ni16  0.037550  0.174160  0.252420  1.056923
    Ni  Ni17  0.668510  0.506230  0.598790  1.073246
    Ni  Ni18  0.710030  0.939820  0.268380  1.133528
    Ni  Ni19  0.719060  0.348820  0.888060  1.154326
    Ni  Ni20  0.761180  0.383590  0.626230  1.102005
    Ni  Ni21  0.820660  0.914510  0.754240  1.060257
    Ni  Ni22  0.863930  0.141650  0.275910  1.167534
    Ni  Ni23  0.872250  0.990040  0.236660  1.221434
    Ni  Ni24  0.973140  0.093330  0.730140  1.162178
    O   O1    0.632650  0.263010  0.862830  -0.936314
    O   O2    0.626060  0.116490  0.899510  -0.685992
    O   O3    0.452600  0.180450  0.852470  -0.594375
    O   O4    0.618200  0.333710  0.907010  -0.962020
    O   O5    0.438540  0.287450  0.897350  -0.607185
    O   O6    0.515860  0.439840  0.898270  -0.780988
    O   O7    0.507000  0.142250  0.902320  -0.551035
    O   O8    0.508330  0.066280  0.855120  -0.709711
    O   O9    0.572670  0.469340  0.623970  -0.973123
    O   O10   0.652170  0.620690  0.583050  -0.574324
    O   O11   0.520800  0.596520  0.591000  -0.690299
    O   O12   0.497880  0.400730  0.575290  -0.788437
    O   O13   0.458860  0.299060  0.652690  -0.620013
    O   O14   0.575790  0.211600  0.640230  -0.605715
    O   O15   0.492450  0.271000  0.598300  -0.524023
    O   O16   0.393010  0.341480  0.619650  -0.620257
    O   O17   0.136360  0.253320  0.729720  -0.773290
    O   O18   0.062680  0.053260  0.742790  -1.043126
    O   O19   0.037710  0.170400  0.700380  -0.605032
    O   O20   0.111360  0.938570  0.779670  -0.637954
    O   O21   0.178120  0.093780  0.787800  -0.717184
    O   O22   0.077800  0.200260  0.782880  -0.596540
    O   O23   0.254990  0.856110  0.365540  -1.067495
    O   O24   0.076780  0.808510  0.377400  -0.603415
    O   O25   0.138460  0.957700  0.364780  -0.699417
    O   O26   0.132410  0.663590  0.368980  -0.572280
    O   O27   0.152270  0.588340  0.416940  -0.708639
    O   O28   0.268300  0.000530  0.404350  -0.647402
    O   O29   0.435610  0.937220  0.354990  -0.612716
    O   O30   0.278160  0.777540  0.407810  -0.965248
    O   O31   0.101500  0.705450  0.420730  -0.533582
    O   O32   0.455830  0.835230  0.400340  -0.598690
    O   O33   0.392300  0.678610  0.399420  -0.702066
    O   O34   0.247800  0.630040  0.368570  -0.677186
    O   O35   0.385970  0.971500  0.406150  -0.533663
    O   O36   0.384440  0.052180  0.361520  -0.772039
    O   O37   0.288360  0.757950  0.106290  -1.018998
    O   O38   0.160030  0.782670  0.137690  -0.457701
    O   O39   0.285760  0.882350  0.150440  -0.799463
    O   O40   0.129920  0.640840  0.097860  -0.504978
    O   O41   0.155610  0.463840  0.152100  -0.892030
    O   O42   0.403350  0.800290  0.149110  -0.609852
    O   O43   0.420290  0.754210  0.070320  -0.544631
    O   O44   0.272090  0.599300  0.125170  -0.920772
    O   O45   0.111060  0.588450  0.152880  -0.798067
    O   O46   0.374560  0.560240  0.084650  -0.581988
    O   O47   0.242410  0.468630  0.078480  -0.772303
    O   O48   0.102140  0.485370  0.101190  -0.609996
    O   O49   0.446630  0.709190  0.122320  -0.555565
    O   O50   0.457580  0.883100  0.097290  -0.657341
    O   O51   0.074620  0.074040  0.235140  -0.720651
    O   O52   0.032060  0.292340  0.269520  -0.495904
    O   O53   0.661090  0.376940  0.608220  -0.872568
    O   O54   0.692260  0.554790  0.892690  -0.538359
    O   O55   0.706670  0.835670  0.242830  -0.599371
    O   O56   0.703960  0.291220  0.654940  -0.708468
    O   O57   0.696380  0.026270  0.297700  -0.785013
    O   O58   0.714510  0.452210  0.864190  -0.537858
    O   O59   0.718600  0.477800  0.942680  -0.668943
    O   O60   0.756410  0.179320  0.862850  -0.731466
    O   O61   0.744860  0.595280  0.626410  -0.462384
    O   O62   0.758700  0.482150  0.652100  -0.619272
    O   O63   0.763890  0.532370  0.574840  -0.555253
    O   O64   0.767430  0.176770  0.287190  -0.662397
    O   O65   0.793140  0.903080  0.210120  -0.700847
    O   O66   0.792600  0.041990  0.250730  -1.019145
    O   O67   0.771970  0.004720  0.737230  -0.768376
    O   O68   0.787430  0.909910  0.293430  -0.626973
    O   O69   0.800940  0.442470  0.913040  -0.532669
    O   O70   0.811290  0.338000  0.866240  -0.657338
    O   O71   0.839200  0.478870  0.602650  -0.693661
    O   O72   0.840030  0.806850  0.772580  -0.557196
    O   O73   0.857230  0.877930  0.260270  -0.492201
    O   O74   0.870960  0.106920  0.713260  -0.555358
    O   O75   0.885950  0.239260  0.246620  -0.517777
    O   O76   0.876290  0.896600  0.721500  -0.692222
    O   O77   0.920660  0.017590  0.762490  -0.940137
    O   O78   0.941610  0.078160  0.265700  -0.884302
    O   O79   0.938670  0.238960  0.301080  -0.581485
    O   O80   0.948510  0.875010  0.799600  -0.645238
    O   O81   0.962560  0.960850  0.218010  -0.544435
    O   O82   0.966410  0.183670  0.222010  -0.769022
    O   O83   0.971990  0.854320  0.743320  -0.530287
    O   O84   0.994150  0.215230  0.750670  -0.511159
