# Generated by REPEAT Assigner based on pymatgen
data_DB7-ddmof_23761
_audit_creation_date              2022-05-24
_audit_creation_method            REPEAT_Assigner
_cell_length_a                    16.806550
_cell_length_b                    18.443140
_cell_length_c                    49.068950
_cell_angle_alpha                 88.448530
_cell_angle_beta                  88.521630
_cell_angle_gamma                 108.095000
_cell_volume                      14442.787435
_symmetry_space_group_name_H-M    P1
_symmetry_Int_Tables_number       1
loop_
    _symmetry_equiv_pos_site_id
    _symmetry_equiv_pos_as_xyz
    1  x,y,z
loop_
    _atom_site_type_symbol
    _atom_site_label
    _atom_site_fract_x
    _atom_site_fract_y
    _atom_site_fract_z
    _atom_type_partial_charge
    C   C1    0.714480  0.166140  0.846500  0.500224
    C   C2    0.482420  0.229270  0.913350  0.977717
    C   C3    0.605890  0.462550  0.927520  0.772052
    C   C4    0.839300  0.445600  0.871450  1.031687
    C   C5    0.447480  0.266700  0.839150  0.379266
    C   C6    0.706570  0.213850  0.696480  0.802795
    C   C7    0.657380  0.404590  0.612620  1.175351
    C   C8    0.528020  0.072450  0.604340  0.931728
    C   C9    0.399530  0.296800  0.607290  0.960740
    C   C10   0.423810  0.082720  0.676920  0.779866
    C   C11   0.633450  0.470950  0.684340  0.476136
    C   C12   0.160450  0.050450  0.801600  0.634082
    C   C13   0.149260  0.939580  0.746920  0.807214
    C   C14   0.188830  0.889350  0.339200  0.480446
    C   C15   0.412990  0.819020  0.405300  1.015362
    C   C16   0.043260  0.687410  0.434590  0.630361
    C   C17   0.293100  0.585150  0.422580  0.753253
    C   C18   0.062780  0.607810  0.366690  1.003021
    C   C19   0.459980  0.794180  0.331880  0.402183
    C   C20   0.512270  0.750070  0.104470  0.760215
    C   C21   0.286940  0.623580  0.181290  0.700660
    C   C22   0.506010  0.983680  0.181770  0.786465
    C   C23   0.176100  0.840560  0.187130  0.557262
    C   C24   0.408770  0.938670  0.111390  1.125725
    C   C25   0.193130  0.605090  0.112780  0.850917
    C   C26   0.141160  0.136920  0.280190  0.611625
    C   C27   0.757240  0.020710  0.297170  0.736625
    C   C28   0.768290  0.146430  0.246150  0.766633
    C   C29   0.192340  0.347730  0.243040  0.788779
    C   C30   0.329060  0.508990  0.207120  -0.034908
    C   C31   0.266530  0.432920  0.198120  -0.015185
    C   C32   0.285930  0.495880  0.236010  0.146011
    C   C33   0.223910  0.421050  0.226740  -0.141215
    C   C34   0.267790  0.551120  0.198020  0.105857
    C   C35   0.225180  0.539090  0.226630  -0.205483
    C   C36   0.163010  0.463510  0.217550  -0.084014
    C   C37   0.205810  0.476170  0.188820  -0.097815
    C   C38   0.596880  0.072730  0.241980  0.042236
    C   C39   0.594080  0.998950  0.226990  -0.049768
    C   C40   0.568070  0.104830  0.215570  -0.068861
    C   C41   0.566900  0.031580  0.200970  -0.041587
    C   C42   0.688760  0.109140  0.231980  -0.075455
    C   C43   0.661240  0.141670  0.205980  -0.015473
    C   C44   0.658910  0.068100  0.191310  0.008991
    C   C45   0.686120  0.035410  0.217310  -0.107678
    C   C46   0.096870  0.897260  0.224880  -0.171063
    C   C47   0.009720  0.896210  0.214860  -0.000968
    C   C48   0.129490  0.985010  0.220520  0.082969
    C   C49   0.043020  0.983450  0.210430  0.049971
    C   C50   0.124810  0.889450  0.195400  0.176502
    C   C51   0.157490  0.976480  0.190920  -0.266788
    C   C52   0.070740  0.975180  0.180840  0.079768
    C   C53   0.038370  0.887230  0.185150  -0.152531
    C   C54   0.621020  0.833580  0.312260  -0.241423
    C   C55   0.670490  0.901870  0.329110  0.012964
    C   C56   0.631610  0.887840  0.286670  0.059326
    C   C57   0.679990  0.955100  0.303740  0.098031
    C   C58   0.539330  0.850030  0.320360  0.512464
    C   C59   0.548500  0.903080  0.294960  -0.300912
    C   C60   0.597900  0.970990  0.311830  -0.021110
    C   C61   0.588050  0.917450  0.337240  -0.166948
    C   C62   0.027060  0.540900  0.349470  -0.317319
    C   C63   0.011240  0.419990  0.351250  -0.183012
    C   C64   0.082810  0.491960  0.341830  0.172157
    C   C65   0.154970  0.065720  0.327850  -0.004698
    C   C66   0.235050  0.040860  0.326200  -0.125024
    C   C67   0.099940  0.981520  0.325960  -0.074438
    C   C68   0.179710  0.957470  0.324080  0.100746
    C   C69   0.157740  0.074080  0.296540  0.118396
    C   C70   0.102610  0.990550  0.294520  -0.083225
    C   C71   0.182550  0.965970  0.292820  0.013271
    C   C72   0.237590  0.050270  0.294640  -0.075247
    C   C73   0.482490  0.926530  0.476340  0.132188
    C   C74   0.457360  0.989700  0.483000  -0.138290
    C   C75   0.470500  0.019060  0.509050  -0.182181
    C   C76   0.508820  0.985360  0.528550  0.229464
    C   C77   0.536280  0.923640  0.521650  -0.186224
    C   C78   0.523130  0.894250  0.495570  -0.148399
    C   C79   0.517550  0.012990  0.555800  0.010370
    C   C80   0.523200  0.038450  0.578270  -0.357683
    C   C81   0.458940  0.890110  0.450920  0.073982
    C   C82   0.439500  0.859220  0.429690  -0.410816
    C   C83   0.982380  0.653560  0.456040  -0.058957
    C   C84   0.739280  0.471480  0.567470  0.132712
    C   C85   0.702200  0.440730  0.588120  -0.551768
    C   C86   0.332230  0.373720  0.535610  0.246204
    C   C87   0.383150  0.375540  0.512360  -0.213384
    C   C88   0.371260  0.412330  0.488230  -0.146856
    C   C89   0.308380  0.447380  0.487260  0.202825
    C   C90   0.254860  0.442350  0.510120  -0.143666
    C   C91   0.266790  0.405600  0.534260  -0.202235
    C   C92   0.304100  0.494810  0.463930  -0.045412
    C   C93   0.299240  0.534860  0.444640  -0.187777
    C   C94   0.352640  0.346230  0.561390  -0.043918
    C   C95   0.371760  0.322760  0.582580  -0.263876
    C   C96   0.775400  0.184590  0.705330  -0.029257
    C   C97   0.761840  0.130870  0.730640  -0.135249
    C   C98   0.270560  0.047430  0.696800  -0.080175
    C   C99   0.271860  0.051930  0.728020  0.080455
    C   C100  0.229320  0.960310  0.699310  0.050105
    C   C101  0.229910  0.964660  0.730590  -0.180218
    C   C102  0.357320  0.036060  0.696820  0.009012
    C   C103  0.316810  0.948780  0.699270  -0.089955
    C   C104  0.316590  0.952650  0.731000  0.071727
    C   C105  0.358970  0.040580  0.728080  -0.191680
    C   C106  0.722590  0.553830  0.724230  -0.100550
    C   C107  0.664190  0.589280  0.740300  0.096425
    C   C108  0.712720  0.668110  0.727420  -0.024082
    C   C109  0.663050  0.541340  0.700330  0.335744
    C   C110  0.711610  0.620190  0.687490  -0.072298
    C   C111  0.653200  0.655660  0.703530  -0.029050
    C   C112  0.604160  0.575850  0.716190  -0.151493
    C   C113  0.064810  0.466500  0.054720  0.248804
    C   C114  0.108680  0.449720  0.032310  -0.182391
    C   C115  0.109780  0.514150  0.075590  -0.031997
    C   C116  0.147380  0.554050  0.093070  -0.292523
    C   C117  0.389410  0.042450  0.038520  0.078639
    C   C118  0.402550  0.121170  0.035720  -0.084764
    C   C119  0.412720  0.156690  0.009730  -0.232219
    C   C120  0.409810  0.113620  0.986440  0.220263
    C   C121  0.392060  0.034310  0.989210  -0.161784
    C   C122  0.381830  0.998790  0.015200  -0.154530
    C   C123  0.433870  0.151780  0.960090  0.002279
    C   C124  0.454370  0.185630  0.938380  -0.386316
    C   C125  0.394860  0.008290  0.064880  0.130118
    C   C126  0.399140  0.977550  0.086560  -0.521277
    C   C127  0.612780  0.685510  0.036730  0.204082
    C   C128  0.589210  0.709820  0.011740  -0.209309
    C   C129  0.596360  0.671830  0.987990  -0.128996
    C   C130  0.627670  0.609830  0.989140  0.194181
    C   C131  0.658640  0.590320  0.013590  -0.161502
    C   C132  0.651250  0.628160  0.037370  -0.173060
    C   C133  0.618410  0.560510  0.966470  -0.036305
    C   C134  0.612020  0.517320  0.948110  -0.213460
    C   C135  0.581810  0.707600  0.061700  -0.051717
    C   C136  0.553930  0.728050  0.081870  -0.163883
    C   C137  0.686150  0.029720  0.796590  -0.185835
    C   C138  0.660960  0.022020  0.827410  0.068964
    C   C139  0.725620  0.100540  0.831460  -0.075130
    C   C140  0.729530  0.983730  0.833020  -0.028375
    C   C141  0.793730  0.063170  0.837360  -0.004042
    C   C142  0.321770  0.104340  0.809430  0.030898
    C   C143  0.332090  0.133020  0.838780  -0.186492
    C   C144  0.360780  0.186970  0.797800  -0.432157
    C   C145  0.370410  0.215070  0.827140  0.592073
    C   C146  0.234330  0.114890  0.809330  0.173622
    C   C147  0.272230  0.196870  0.797460  0.021148
    C   C148  0.283280  0.226140  0.826990  -0.237394
    C   C149  0.244390  0.143310  0.838590  0.036387
    C   C150  0.754460  0.992510  0.802420  0.046266
    C   C151  0.800220  0.126410  0.687940  -0.000008
    C   C152  0.786510  0.072490  0.713280  -0.074816
    C   C153  0.895840  0.364810  0.963610  -0.134577
    C   C154  0.843310  0.347650  0.940610  0.665721
    C   C155  0.775850  0.935450  0.785020  0.657813
    C   C156  0.745290  0.739210  0.742850  0.757689
    C   C157  0.783530  0.508360  0.542830  0.111840
    C   C158  0.838490  0.622050  0.513460  -0.213093
    C   C159  0.791440  0.585000  0.536610  -0.142043
    C   C160  0.771520  0.633530  0.711570  -0.185529
    C   C161  0.750380  0.108930  0.800990  0.208193
    C   C162  0.818730  0.071130  0.806650  -0.194213
    C   C163  0.877210  0.515840  0.853740  -0.320035
    C   C164  0.821720  0.564570  0.845470  0.125774
    C   C165  0.927870  0.057270  0.727600  0.728649
    C   C166  0.965460  0.340560  0.308460  0.444778
    C   C167  0.002290  0.041330  0.218390  0.688054
    C   C168  0.921170  0.462580  0.329650  -0.178313
    C   C169  0.993480  0.536000  0.320460  0.030353
    C   C170  0.977770  0.414080  0.322210  0.280602
    C   C171  0.820740  0.468310  0.525390  -0.135962
    C   C172  0.867700  0.505300  0.502260  -0.189704
    C   C173  0.877710  0.582540  0.496460  0.293404
    C   C174  0.892850  0.163520  0.694980  -0.009670
    C   C175  0.878700  0.109640  0.720390  -0.019854
    C   C176  0.867460  0.222880  0.712280  -0.118990
    C   C177  0.854580  0.168130  0.737840  0.119353
    C   C178  0.065570  0.417300  0.009370  -0.181630
    C   C179  0.978520  0.401460  0.008860  0.246804
    C   C180  0.934240  0.413650  0.031970  -0.180347
    C   C181  0.935740  0.381450  0.983820  -0.098782
    C   C182  0.918260  0.526560  0.824870  -0.003433
    C   C183  0.862730  0.576190  0.816530  -0.036510
    C   C184  0.930450  0.647760  0.825860  0.231613
    C   C185  0.889480  0.636110  0.854750  -0.149472
    C   C186  0.945120  0.587140  0.863080  0.012777
    C   C187  0.955310  0.469200  0.358930  0.062520
    C   C188  0.934320  0.622580  0.474570  -0.159605
    C   C189  0.946160  0.723860  0.811590  0.464535
    C   C190  0.977290  0.446100  0.054840  -0.208227
    C   C191  0.986750  0.599490  0.833950  -0.111450
    C   C192  0.049290  0.486140  0.312770  -0.119586
    H   H1    0.671210  0.388780  0.853470  0.376946
    H   H2    0.663730  0.229010  0.915750  0.351637
    H   H3    0.498440  0.273630  0.685110  0.381330
    H   H4    0.634920  0.235150  0.619450  0.324368
    H   H5    0.959670  0.839360  0.742260  0.432505
    H   H6    0.233560  0.667250  0.347610  0.383433
    H   H7    0.230020  0.817130  0.409160  0.361689
    H   H8    0.263730  0.803860  0.119770  0.316227
    H   H9    0.419150  0.776390  0.181770  0.377218
    H   H10   0.397680  0.528530  0.202650  0.021080
    H   H11   0.283340  0.388650  0.186490  0.030581
    H   H12   0.318670  0.503280  0.255600  -0.012468
    H   H13   0.208140  0.583170  0.238320  0.122546
    H   H14   0.094330  0.444290  0.221950  0.069410
    H   H15   0.172850  0.468630  0.169270  0.106010
    H   H16   0.571640  0.075150  0.262940  0.022313
    H   H17   0.566140  0.939460  0.235090  0.033244
    H   H18   0.518580  0.132980  0.214670  0.069224
    H   H19   0.689090  0.200730  0.197360  0.055563
    H   H20   0.685600  0.066370  0.170480  0.031050
    H   H21   0.734430  0.005790  0.217940  0.059612
    H   H22   0.107440  0.863870  0.242800  0.152460
    H   H23   0.169840  0.024140  0.234850  0.001535
    H   H24   0.218700  0.009340  0.181000  0.097153
    H   H25   0.059700  0.007640  0.162710  0.019284
    H   H26   0.001530  0.846400  0.170460  0.037839
    H   H27   0.629800  0.776340  0.312550  0.082985
    H   H28   0.721200  0.901600  0.343130  0.032080
    H   H29   0.650510  0.876060  0.265830  0.015668
    H   H30   0.497240  0.903330  0.281180  0.140177
    H   H31   0.588540  0.028010  0.311690  0.061641
    H   H32   0.569710  0.929610  0.358110  0.077835
    H   H33   0.018540  0.371990  0.364030  0.076003
    H   H34   0.149640  0.504070  0.346870  -0.013422
    H   H35   0.143480  0.107260  0.342180  0.019108
    H   H36   0.289730  0.060850  0.339390  0.069262
    H   H37   0.043120  0.952840  0.338920  0.021320
    H   H38   0.194980  0.924480  0.278700  0.102290
    H   H39   0.294080  0.079130  0.281560  0.060966
    H   H40   0.425780  0.014850  0.468260  0.118255
    H   H41   0.449550  0.067100  0.514210  0.155892
    H   H42   0.566460  0.897630  0.536560  0.154833
    H   H43   0.542680  0.845330  0.490560  0.135794
    H   H44   0.897870  0.474400  0.489210  0.157142
    H   H45   0.762340  0.616180  0.549910  0.150106
    H   H46   0.433660  0.350700  0.513220  0.174625
    H   H47   0.412630  0.415680  0.470600  0.132416
    H   H48   0.205800  0.468990  0.509480  0.139754
    H   H49   0.226930  0.404110  0.552120  0.153242
    H   H50   0.777430  0.109210  0.667310  -0.023337
    H   H51   0.752130  0.010420  0.713420  0.059820
    H   H52   0.706020  0.117500  0.744660  0.087532
    H   H53   0.250430  0.086440  0.682900  0.047743
    H   H54   0.253710  0.095040  0.739960  0.018519
    H   H55   0.175730  0.926960  0.687410  0.041182
    H   H56   0.335980  0.906620  0.687160  0.067273
    H   H57   0.334940  0.913240  0.745200  0.025137
    H   H58   0.412630  0.074410  0.739850  0.094588
    H   H59   0.644730  0.577240  0.762180  -0.000828
    H   H60   0.624760  0.698020  0.695150  0.055390
    H   H61   0.534910  0.551270  0.717990  0.041045
    H   H62   0.176370  0.464800  0.032150  0.157981
    H   H63   0.408160  0.155290  0.053630  0.132186
    H   H64   0.425900  0.218000  0.007750  0.169607
    H   H65   0.389200  0.000550  0.971320  0.128479
    H   H66   0.371320  0.937830  0.017190  0.160601
    H   H67   0.560420  0.754870  0.011030  0.174402
    H   H68   0.573640  0.688110  0.969040  0.129163
    H   H69   0.684370  0.543240  0.014510  0.156311
    H   H70   0.670590  0.609640  0.056540  0.138889
    H   H71   0.641770  0.015130  0.779740  0.079081
    H   H72   0.595870  0.002500  0.836140  0.016788
    H   H73   0.721080  0.931650  0.846120  0.024455
    H   H74   0.837970  0.077440  0.854270  0.011048
    H   H75   0.337400  0.053820  0.802050  0.053852
    H   H76   0.357120  0.106750  0.855820  0.072215
    H   H77   0.409360  0.205050  0.781080  0.170669
    H   H78   0.246820  0.222580  0.780390  0.036469
    H   H79   0.268020  0.276830  0.834350  0.078920
    H   H80   0.196000  0.125110  0.855370  0.014268
    H   H81   0.054950  0.614510  0.829110  0.070610
    H   H82   0.753480  0.550190  0.850220  -0.003651
    H   H83   0.954710  0.946960  0.813150  0.437444
    H   H84   0.047860  0.970020  0.281390  0.052695
    H   H85   0.845920  0.681760  0.509110  0.143731
    H   H86   0.751130  0.511580  0.732650  0.089967
    H   H87   0.731200  0.632270  0.665620  0.069289
    H   H88   0.866830  0.401020  0.031780  0.175358
    H   H89   0.758070  0.162120  0.788680  0.094268
    H   H90   0.877580  0.681390  0.867160  0.063972
    H   H91   0.979280  0.257120  0.238410  0.409422
    H   H92   0.960450  0.114780  0.304760  0.436193
    H   H93   0.948510  0.863720  0.224840  0.048265
    H   H94   0.854400  0.449760  0.324500  0.088898
    H   H95   0.986730  0.584610  0.307920  0.054105
    H   H96   0.814450  0.408930  0.529980  0.118702
    H   H97   0.947310  0.176580  0.680330  0.056412
    H   H98   0.900080  0.285300  0.711740  0.075615
    H   H99   0.879080  0.185860  0.758200  -0.002343
    H   H100  0.840790  0.658070  0.709770  0.084682
    H   H101  0.100150  0.407380  0.991670  0.150794
    H   H102  0.884040  0.091270  0.798160  0.114712
    H   H103  0.828750  0.572050  0.797220  0.031357
    H   H104  0.978710  0.591220  0.882450  0.057271
    H   H105  0.929610  0.480690  0.812670  0.051371
    H   H106  0.917030  0.462770  0.378150  0.036157
    H   H107  0.942920  0.458560  0.072140  0.139036
    H   H108  0.088000  0.492730  0.293620  0.071833
    O   O1    0.769110  0.357340  0.942370  -0.639091
    O   O2    0.639580  0.361740  0.869990  -1.129644
    O   O3    0.569040  0.468630  0.904570  -0.683152
    O   O4    0.798950  0.451620  0.893960  -0.729020
    O   O5    0.629060  0.402340  0.933070  -0.601565
    O   O6    0.439190  0.312810  0.858260  -0.718649
    O   O7    0.518940  0.252700  0.835250  -0.633901
    O   O8    0.684270  0.263430  0.899500  -1.007177
    O   O9    0.782790  0.220600  0.852710  -0.612927
    O   O10   0.504790  0.196510  0.892220  -0.705318
    O   O11   0.642530  0.180710  0.844480  -0.608081
    O   O12   0.495960  0.303580  0.913150  -0.630711
    O   O13   0.583520  0.064070  0.621750  -0.723788
    O   O14   0.472730  0.107200  0.611040  -0.649404
    O   O15   0.521430  0.288920  0.666310  -1.124810
    O   O16   0.397460  0.333330  0.629770  -0.743360
    O   O17   0.410360  0.139450  0.663200  -0.703100
    O   O18   0.440950  0.246990  0.605830  -0.734975
    O   O19   0.490500  0.062010  0.671530  -0.680952
    O   O20   0.587380  0.471210  0.663110  -0.732515
    O   O21   0.659000  0.411810  0.690220  -0.659357
    O   O22   0.608230  0.224120  0.637960  -1.149695
    O   O23   0.634640  0.163720  0.691340  -0.745523
    O   O24   0.698850  0.389530  0.633310  -0.682012
    O   O25   0.723140  0.285260  0.687620  -0.716471
    O   O26   0.575070  0.385110  0.613820  -0.719455
    O   O27   0.154010  0.981300  0.811710  -0.776335
    O   O28   0.100990  0.063950  0.786710  -0.706618
    O   O29   0.093020  0.971650  0.740710  -0.705076
    O   O30   0.132640  0.883960  0.765750  -0.700028
    O   O31   0.969440  0.917300  0.798400  -1.203339
    O   O32   0.023410  0.766630  0.804410  -0.639069
    O   O33   0.019420  0.712600  0.411700  -0.685105
    O   O34   0.119570  0.683240  0.436690  -0.632440
    O   O35   0.262540  0.692020  0.363820  -1.143030
    O   O36   0.328120  0.581100  0.398570  -0.689757
    O   O37   0.100070  0.597730  0.388870  -0.731769
    O   O38   0.263330  0.641510  0.427720  -0.602111
    O   O39   0.072640  0.677170  0.356980  -0.701862
    O   O40   0.464810  0.743350  0.350580  -0.723311
    O   O41   0.388640  0.807660  0.328040  -0.627098
    O   O42   0.212100  0.785100  0.393190  -1.027476
    O   O43   0.119900  0.833880  0.346420  -0.593343
    O   O44   0.392300  0.854780  0.384370  -0.735399
    O   O45   0.261590  0.875900  0.337120  -0.602562
    O   O46   0.399030  0.744670  0.405640  -0.647660
    O   O47   0.534220  0.969830  0.157920  -0.754904
    O   O48   0.429180  0.945590  0.190310  -0.706101
    O   O49   0.275370  0.784420  0.137740  -1.020837
    O   O50   0.137920  0.767810  0.183380  -0.655613
    O   O51   0.368550  0.946290  0.134050  -0.721432
    O   O52   0.256740  0.864330  0.191870  -0.551709
    O   O53   0.454680  0.892380  0.110820  -0.683555
    O   O54   0.156840  0.610150  0.136410  -0.696886
    O   O55   0.268500  0.650650  0.106080  -0.658159
    O   O56   0.412650  0.797680  0.163530  -1.115127
    O   O57   0.556830  0.792830  0.123160  -0.693835
    O   O58   0.333810  0.632600  0.158790  -0.739411
    O   O59   0.431810  0.740260  0.103010  -0.609826
    O   O60   0.244080  0.670840  0.186290  -0.633001
    O   O61   0.774370  0.079070  0.313550  -0.776076
    O   O62   0.809490  0.017020  0.276650  -0.718949
    O   O63   0.837650  0.140640  0.235610  -0.671837
    O   O64   0.768230  0.180350  0.269480  -0.724895
    O   O65   0.195960  0.284250  0.232330  -0.703214
    O   O66   0.146900  0.345390  0.265450  -0.678422
    O   O67   0.132960  0.196650  0.292520  -0.666165
    O   O68   0.124320  0.126730  0.254260  -0.575021
    O   O69   0.958510  0.058460  0.752200  -0.706661
    O   O70   0.831690  0.377770  0.862100  -0.706361
    O   O71   0.744550  0.804980  0.731950  -0.723792
    O   O72   0.872730  0.329990  0.917320  -0.683327
    O   O73   0.782080  0.736070  0.765960  -0.677156
    O   O74   0.784230  0.873120  0.796490  -0.656775
    O   O75   0.795810  0.953160  0.758980  -0.576758
    O   O76   0.889560  0.297990  0.302010  -0.618237
    O   O77   0.917360  0.996730  0.712960  -0.693035
    O   O78   0.882840  0.751190  0.810320  -0.601690
    O   O79   0.002020  0.217810  0.246150  -1.093191
    O   O80   0.027130  0.108480  0.205580  -0.710085
    O   O81   0.958250  0.031480  0.241660  -0.682014
    O   O82   0.947990  0.152580  0.292250  -1.195688
    O   O83   0.930470  0.872870  0.750560  -1.145835
    O   O84   0.028440  0.312660  0.308380  -0.612569
    Zn  Zn1   0.700670  0.368800  0.907900  1.325287
    Zn  Zn2   0.532410  0.383790  0.878060  1.258072
    Zn  Zn3   0.601300  0.249900  0.867520  1.365715
    Zn  Zn4   0.800650  0.272510  0.888100  1.173987
    Zn  Zn5   0.489230  0.204230  0.636300  1.447130
    Zn  Zn6   0.499260  0.380170  0.651050  1.243481
    Zn  Zn7   0.644160  0.317890  0.663890  1.417732
    Zn  Zn8   0.615270  0.127380  0.653800  1.262295
    Zn  Zn9   0.007110  0.978330  0.765560  1.467518
    Zn  Zn10  0.067400  0.883010  0.806020  1.267906
    Zn  Zn11  0.195560  0.678390  0.402190  1.357883
    Zn  Zn12  0.368470  0.669410  0.371270  1.268695
    Zn  Zn13  0.300020  0.804230  0.360530  1.368225
    Zn  Zn14  0.097260  0.777320  0.382440  1.171466
    Zn  Zn15  0.344440  0.867230  0.164310  1.306783
    Zn  Zn16  0.174490  0.708380  0.155040  1.165510
    Zn  Zn17  0.349660  0.722040  0.133750  1.406351
    Zn  Zn18  0.517800  0.864910  0.145960  1.225669
    Zn  Zn19  0.092950  0.201900  0.224020  1.152175
    Zn  Zn20  0.850040  0.181700  0.305040  1.271285
    Zn  Zn21  0.913980  0.109850  0.257880  1.430181
    Zn  Zn22  0.846790  0.894450  0.727760  1.167884
    Zn  Zn23  0.870670  0.828730  0.784550  1.370506
    Zn  Zn24  0.051030  0.246410  0.281320  1.370529
